<?xml version="1.0" encoding="UTF-8"?>

<!-- generated on 2024-02-10 00:08:32.583818 by randomTrips.py UNKNOWN
<configuration>
    <net-file value="grid4x4.net.xml"/>
    <output-trip-file value="/home/red/sumo-scenarios/grid4x4/random.rou.xml"/>
    <prefix value="evening"/>
    <trip-attributes value="type=&quot;griddistrandom&quot;"/>
    <random-departpos value="True"/>
    <random-arrivalpos value="True"/>
    <random value="True"/>
    <validate value="True"/>
    <period value="5.0"/>
    <random-depart value="True"/>
</configuration>
-->

<!-- generated on 2024-02-10 00:08:32 by Eclipse SUMO duarouter Version 1.19.0
<configuration xmlns:xsi="http://www.w3.org/2001/XMLSchema-instance" xsi:noNamespaceSchemaLocation="http://sumo.dlr.de/xsd/duarouterConfiguration.xsd">

    <input>
        <net-file value="grid4x4.net.xml"/>
        <route-files value="/home/red/sumo-scenarios/grid4x4/random.rou.xml"/>
    </input>

    <output>
        <output-file value="/home/red/sumo-scenarios/grid4x4/random.rou.xml.tmp"/>
        <alternatives-output value="NUL"/>
        <write-trips value="true"/>
    </output>

    <time>
        <begin value="0"/>
        <end value="3600"/>
    </time>

    <report>
        <no-warnings value="true"/>
        <ignore-errors value="true"/>
        <no-step-log value="true"/>
    </report>

</configuration>
-->

<routes xmlns:xsi="http://www.w3.org/2001/XMLSchema-instance" xsi:noNamespaceSchemaLocation="http://sumo.dlr.de/xsd/routes_file.xsd">
    <trip id="evening0" type="griddistrandom" depart="5.00" departPos="97.84" arrivalPos="87.22" from="nt13_nt9" to="nt13_nt9"/>
    <trip id="evening1" type="griddistrandom" depart="27.00" departPos="34.46" arrivalPos="60.42" from="nt8_nt4" to="nt4_np4"/>
    <trip id="evening2" type="griddistrandom" depart="28.00" departPos="55.75" arrivalPos="29.20" from="np4_nt4" to="nt8_np6"/>
    <trip id="evening3" type="griddistrandom" depart="36.00" departPos="3.82" arrivalPos="158.62" from="np9_nt16" to="nt9_nt5"/>
    <trip id="evening4" type="griddistrandom" depart="37.00" departPos="124.71" arrivalPos="111.33" from="nt6_nt10" to="nt9_nt10"/>
    <trip id="evening5" type="griddistrandom" depart="42.00" departPos="6.93" arrivalPos="58.56" from="np2_nt2" to="nt8_np6"/>
    <trip id="evening6" type="griddistrandom" depart="46.00" departPos="22.18" arrivalPos="92.73" from="np3_nt3" to="nt6_nt2"/>
    <trip id="evening7" type="griddistrandom" depart="48.00" departPos="61.94" arrivalPos="46.04" from="nt11_nt15" to="nt13_np12"/>
    <trip id="evening8" type="griddistrandom" depart="50.00" departPos="172.39" arrivalPos="146.09" from="nt4_nt3" to="nt2_nt1"/>
    <trip id="evening9" type="griddistrandom" depart="56.00" departPos="40.79" arrivalPos="45.29" from="nt5_nt9" to="nt8_nt12"/>
    <trip id="evening10" type="griddistrandom" depart="75.00" departPos="40.94" arrivalPos="73.54" from="np11_nt14" to="nt12_nt16"/>
    <trip id="evening11" type="griddistrandom" depart="83.00" departPos="176.74" arrivalPos="116.08" from="nt10_nt6" to="nt10_nt9"/>
    <trip id="evening12" type="griddistrandom" depart="87.00" departPos="52.21" arrivalPos="145.58" from="nt9_nt5" to="nt3_nt7"/>
    <trip id="evening13" type="griddistrandom" depart="89.00" departPos="46.72" arrivalPos="60.08" from="np5_nt4" to="nt7_nt8"/>
    <trip id="evening14" type="griddistrandom" depart="96.00" departPos="139.25" arrivalPos="66.41" from="nt5_nt1" to="nt16_nt15"/>
    <trip id="evening15" type="griddistrandom" depart="96.00" departPos="85.19" arrivalPos="129.04" from="nt14_nt10" to="nt9_nt13"/>
    <trip id="evening16" type="griddistrandom" depart="105.00" departPos="2.27" arrivalPos="57.90" from="np14_nt9" to="nt1_nt2"/>
    <trip id="evening17" type="griddistrandom" depart="107.00" departPos="97.50" arrivalPos="116.16" from="nt5_nt1" to="nt10_nt9"/>
    <trip id="evening18" type="griddistrandom" depart="110.00" departPos="20.55" arrivalPos="47.36" from="nt7_nt6" to="nt16_np8"/>
    <trip id="evening19" type="griddistrandom" depart="127.00" departPos="124.92" arrivalPos="16.75" from="nt6_nt10" to="nt16_nt12"/>
    <trip id="evening20" type="griddistrandom" depart="128.00" departPos="6.03" arrivalPos="56.46" from="np1_nt1" to="nt16_np8"/>
    <trip id="evening21" type="griddistrandom" depart="131.00" departPos="126.33" arrivalPos="86.30" from="nt13_nt9" to="nt1_nt2"/>
    <trip id="evening22" type="griddistrandom" depart="135.00" departPos="78.34" arrivalPos="109.54" from="nt6_nt2" to="nt10_nt9"/>
    <trip id="evening23" type="griddistrandom" depart="136.00" departPos="26.49" arrivalPos="126.58" from="nt1_nt2" to="nt11_nt7"/>
    <trip id="evening24" type="griddistrandom" depart="141.00" departPos="160.67" arrivalPos="160.25" from="nt8_nt7" to="nt13_nt14"/>
    <trip id="evening25" type="griddistrandom" depart="150.00" departPos="115.26" arrivalPos="18.75" from="nt14_nt13" to="nt12_np7"/>
    <trip id="evening26" type="griddistrandom" depart="150.00" departPos="117.51" arrivalPos="82.84" from="nt8_nt4" to="nt2_nt6"/>
    <trip id="evening27" type="griddistrandom" depart="157.00" departPos="40.35" arrivalPos="151.78" from="np5_nt4" to="nt14_nt13"/>
    <trip id="evening28" type="griddistrandom" depart="159.00" departPos="3.70" arrivalPos="48.80" from="np16_nt1" to="nt4_nt3"/>
    <trip id="evening29" type="griddistrandom" depart="164.00" departPos="103.06" arrivalPos="44.31" from="nt11_nt10" to="nt10_nt6"/>
    <trip id="evening30" type="griddistrandom" depart="166.00" departPos="17.95" arrivalPos="136.14" from="np15_nt5" to="nt2_nt1"/>
    <trip id="evening31" type="griddistrandom" depart="168.00" departPos="92.94" arrivalPos="60.61" from="nt4_nt8" to="nt10_nt6"/>
    <trip id="evening32" type="griddistrandom" depart="168.00" departPos="136.82" arrivalPos="129.44" from="nt14_nt15" to="nt9_nt13"/>
    <trip id="evening33" type="griddistrandom" depart="182.00" departPos="21.93" arrivalPos="32.88" from="np8_nt16" to="nt8_nt4"/>
    <trip id="evening34" type="griddistrandom" depart="187.00" departPos="109.68" arrivalPos="59.27" from="nt6_nt2" to="nt5_nt1"/>
    <trip id="evening35" type="griddistrandom" depart="194.00" departPos="113.94" arrivalPos="46.79" from="nt7_nt6" to="nt3_np3"/>
    <trip id="evening36" type="griddistrandom" depart="199.00" departPos="37.48" arrivalPos="54.13" from="nt6_nt5" to="nt12_nt11"/>
    <trip id="evening37" type="griddistrandom" depart="203.00" departPos="131.46" arrivalPos="13.60" from="nt6_nt7" to="nt6_nt5"/>
    <trip id="evening38" type="griddistrandom" depart="219.00" departPos="142.43" arrivalPos="36.48" from="nt5_nt6" to="nt7_nt11"/>
    <trip id="evening39" type="griddistrandom" depart="219.00" departPos="106.97" arrivalPos="53.45" from="nt7_nt3" to="nt1_np1"/>
    <trip id="evening40" type="griddistrandom" depart="221.00" departPos="141.01" arrivalPos="81.00" from="nt2_nt1" to="nt7_nt6"/>
    <trip id="evening41" type="griddistrandom" depart="225.00" departPos="6.16" arrivalPos="42.60" from="nt6_nt5" to="nt13_np13"/>
    <trip id="evening42" type="griddistrandom" depart="227.00" departPos="18.30" arrivalPos="65.96" from="np3_nt3" to="nt12_np7"/>
    <trip id="evening43" type="griddistrandom" depart="231.00" departPos="124.41" arrivalPos="116.03" from="nt11_nt15" to="nt1_nt5"/>
    <trip id="evening44" type="griddistrandom" depart="235.00" departPos="89.53" arrivalPos="34.20" from="nt11_nt10" to="nt1_np1"/>
    <trip id="evening45" type="griddistrandom" depart="239.00" departPos="16.21" arrivalPos="95.21" from="nt7_nt8" to="nt9_nt10"/>
    <trip id="evening46" type="griddistrandom" depart="247.00" departPos="62.91" arrivalPos="51.07" from="np6_nt8" to="nt13_np13"/>
    <trip id="evening47" type="griddistrandom" depart="249.00" departPos="159.85" arrivalPos="48.14" from="nt9_nt5" to="nt12_np7"/>
    <trip id="evening48" type="griddistrandom" depart="253.00" departPos="137.11" arrivalPos="13.92" from="nt12_nt16" to="nt13_np12"/>
    <trip id="evening49" type="griddistrandom" depart="254.00" departPos="4.85" arrivalPos="91.16" from="np3_nt3" to="nt10_nt14"/>
    <trip id="evening50" type="griddistrandom" depart="256.00" departPos="8.14" arrivalPos="55.64" from="nt9_nt5" to="nt4_np4"/>
    <trip id="evening51" type="griddistrandom" depart="265.00" departPos="24.53" arrivalPos="13.66" from="nt5_nt9" to="nt11_nt7"/>
    <trip id="evening52" type="griddistrandom" depart="275.00" departPos="123.62" arrivalPos="148.77" from="nt16_nt12" to="nt11_nt7"/>
    <trip id="evening53" type="griddistrandom" depart="276.00" departPos="105.73" arrivalPos="68.52" from="nt9_nt5" to="nt12_nt16"/>
    <trip id="evening54" type="griddistrandom" depart="282.00" departPos="40.43" arrivalPos="37.83" from="nt7_nt6" to="nt16_nt12"/>
    <trip id="evening55" type="griddistrandom" depart="290.00" departPos="133.29" arrivalPos="57.49" from="nt9_nt10" to="nt11_nt7"/>
    <trip id="evening56" type="griddistrandom" depart="293.00" departPos="143.30" arrivalPos="120.58" from="nt7_nt6" to="nt5_nt9"/>
    <trip id="evening57" type="griddistrandom" depart="294.00" departPos="182.14" arrivalPos="69.79" from="nt11_nt10" to="nt16_nt12"/>
    <trip id="evening58" type="griddistrandom" depart="305.00" departPos="49.38" arrivalPos="51.21" from="nt6_nt10" to="nt1_np1"/>
    <trip id="evening59" type="griddistrandom" depart="317.00" departPos="35.84" arrivalPos="43.64" from="nt12_nt16" to="nt16_np8"/>
    <trip id="evening60" type="griddistrandom" depart="317.00" departPos="75.23" arrivalPos="163.82" from="nt14_nt13" to="nt15_nt14"/>
    <trip id="evening61" type="griddistrandom" depart="319.00" departPos="76.43" arrivalPos="25.16" from="nt15_nt11" to="nt14_nt13"/>
    <trip id="evening62" type="griddistrandom" depart="322.00" departPos="53.79" arrivalPos="118.13" from="nt4_nt3" to="nt10_nt6"/>
    <trip id="evening63" type="griddistrandom" depart="329.00" departPos="11.68" arrivalPos="3.98" from="nt13_nt14" to="nt8_nt4"/>
    <trip id="evening64" type="griddistrandom" depart="332.00" departPos="139.06" arrivalPos="84.52" from="nt9_nt13" to="nt9_nt13"/>
    <trip id="evening65" type="griddistrandom" depart="332.00" departPos="158.75" arrivalPos="6.99" from="nt14_nt13" to="nt8_np6"/>
    <trip id="evening66" type="griddistrandom" depart="334.00" departPos="23.66" arrivalPos="81.95" from="nt10_nt6" to="nt4_nt3"/>
    <trip id="evening67" type="griddistrandom" depart="334.00" departPos="36.80" arrivalPos="148.18" from="np13_nt13" to="nt5_nt1"/>
    <trip id="evening68" type="griddistrandom" depart="336.00" departPos="15.88" arrivalPos="141.80" from="nt6_nt5" to="nt6_nt2"/>
    <trip id="evening69" type="griddistrandom" depart="339.00" departPos="143.53" arrivalPos="46.66" from="nt8_nt4" to="nt11_nt7"/>
    <trip id="evening70" type="griddistrandom" depart="340.00" departPos="149.80" arrivalPos="1.69" from="nt2_nt3" to="nt1_nt5"/>
    <trip id="evening71" type="griddistrandom" depart="350.00" departPos="151.76" arrivalPos="29.85" from="nt10_nt9" to="nt9_np14"/>
    <trip id="evening72" type="griddistrandom" depart="355.00" departPos="172.24" arrivalPos="44.91" from="nt12_nt8" to="nt5_nt1"/>
    <trip id="evening73" type="griddistrandom" depart="363.00" departPos="8.53" arrivalPos="131.58" from="np15_nt5" to="nt2_nt6"/>
    <trip id="evening74" type="griddistrandom" depart="364.00" departPos="8.12" arrivalPos="120.61" from="np3_nt3" to="nt4_nt8"/>
    <trip id="evening75" type="griddistrandom" depart="365.00" departPos="8.32" arrivalPos="130.19" from="nt9_nt10" to="nt11_nt15"/>
    <trip id="evening76" type="griddistrandom" depart="368.00" departPos="109.02" arrivalPos="54.37" from="nt6_nt2" to="nt4_np5"/>
    <trip id="evening77" type="griddistrandom" depart="368.00" departPos="135.99" arrivalPos="154.87" from="nt1_nt5" to="nt4_nt3"/>
    <trip id="evening78" type="griddistrandom" depart="388.00" departPos="128.91" arrivalPos="167.89" from="nt3_nt4" to="nt10_nt14"/>
    <trip id="evening79" type="griddistrandom" depart="397.00" departPos="119.43" arrivalPos="34.50" from="nt11_nt10" to="nt3_np3"/>
    <trip id="evening80" type="griddistrandom" depart="402.00" departPos="87.83" arrivalPos="58.70" from="nt10_nt11" to="nt15_nt14"/>
    <trip id="evening81" type="griddistrandom" depart="404.00" departPos="99.37" arrivalPos="57.55" from="nt13_nt14" to="nt7_nt3"/>
    <trip id="evening82" type="griddistrandom" depart="413.00" departPos="19.09" arrivalPos="20.61" from="nt3_nt4" to="nt9_nt5"/>
    <trip id="evening83" type="griddistrandom" depart="415.00" departPos="168.67" arrivalPos="30.28" from="nt9_nt13" to="nt14_nt15"/>
    <trip id="evening84" type="griddistrandom" depart="415.00" departPos="63.91" arrivalPos="140.50" from="nt5_nt9" to="nt12_nt11"/>
    <trip id="evening85" type="griddistrandom" depart="417.00" departPos="10.44" arrivalPos="51.66" from="np8_nt16" to="nt1_np16"/>
    <trip id="evening86" type="griddistrandom" depart="420.00" departPos="144.14" arrivalPos="53.15" from="nt11_nt15" to="nt13_np12"/>
    <trip id="evening87" type="griddistrandom" depart="435.00" departPos="19.40" arrivalPos="106.82" from="nt16_nt15" to="nt6_nt2"/>
    <trip id="evening88" type="griddistrandom" depart="436.00" departPos="171.54" arrivalPos="70.56" from="nt11_nt10" to="nt4_np5"/>
    <trip id="evening89" type="griddistrandom" depart="439.00" departPos="83.38" arrivalPos="157.76" from="nt6_nt2" to="nt8_nt4"/>
    <trip id="evening90" type="griddistrandom" depart="441.00" departPos="152.36" arrivalPos="153.97" from="nt15_nt11" to="nt8_nt7"/>
    <trip id="evening91" type="griddistrandom" depart="446.00" departPos="14.13" arrivalPos="92.44" from="nt1_nt5" to="nt10_nt6"/>
    <trip id="evening92" type="griddistrandom" depart="447.00" departPos="48.35" arrivalPos="13.24" from="nt5_nt1" to="nt2_np2"/>
    <trip id="evening93" type="griddistrandom" depart="448.00" departPos="29.72" arrivalPos="108.82" from="np10_nt15" to="nt3_nt2"/>
    <trip id="evening94" type="griddistrandom" depart="449.00" departPos="11.50" arrivalPos="9.47" from="np15_nt5" to="nt1_np16"/>
    <trip id="evening95" type="griddistrandom" depart="450.00" departPos="4.68" arrivalPos="48.32" from="nt10_nt9" to="nt11_nt12"/>
    <trip id="evening96" type="griddistrandom" depart="453.00" departPos="53.50" arrivalPos="49.49" from="nt2_nt3" to="nt6_nt2"/>
    <trip id="evening97" type="griddistrandom" depart="455.00" departPos="95.74" arrivalPos="107.43" from="nt13_nt14" to="nt3_nt7"/>
    <trip id="evening98" type="griddistrandom" depart="456.00" departPos="41.03" arrivalPos="15.72" from="np13_nt13" to="nt4_np5"/>
    <trip id="evening99" type="griddistrandom" depart="457.00" departPos="93.72" arrivalPos="4.87" from="nt3_nt2" to="nt7_nt6"/>
    <trip id="evening100" type="griddistrandom" depart="458.00" departPos="23.75" arrivalPos="58.89" from="np5_nt4" to="nt11_nt12"/>
    <trip id="evening101" type="griddistrandom" depart="461.00" departPos="70.70" arrivalPos="4.91" from="nt2_nt1" to="nt3_nt2"/>
    <trip id="evening102" type="griddistrandom" depart="465.00" departPos="55.24" arrivalPos="106.85" from="np7_nt12" to="nt6_nt2"/>
    <trip id="evening103" type="griddistrandom" depart="472.00" departPos="25.02" arrivalPos="39.17" from="nt12_nt11" to="nt15_nt14"/>
    <trip id="evening104" type="griddistrandom" depart="472.00" departPos="51.90" arrivalPos="24.89" from="np1_nt1" to="nt5_np15"/>
    <trip id="evening105" type="griddistrandom" depart="473.00" departPos="141.12" arrivalPos="59.40" from="nt11_nt15" to="nt16_np8"/>
    <trip id="evening106" type="griddistrandom" depart="473.00" departPos="41.35" arrivalPos="18.03" from="np15_nt5" to="nt16_nt15"/>
    <trip id="evening107" type="griddistrandom" depart="479.00" departPos="46.84" arrivalPos="88.48" from="nt11_nt12" to="nt11_nt7"/>
    <trip id="evening108" type="griddistrandom" depart="486.00" departPos="19.16" arrivalPos="112.52" from="np9_nt16" to="nt7_nt6"/>
    <trip id="evening109" type="griddistrandom" depart="498.00" departPos="58.40" arrivalPos="16.30" from="np16_nt1" to="nt11_nt15"/>
    <trip id="evening110" type="griddistrandom" depart="513.00" departPos="95.99" arrivalPos="25.90" from="nt16_nt12" to="nt16_nt15"/>
    <trip id="evening111" type="griddistrandom" depart="515.00" departPos="88.15" arrivalPos="81.00" from="nt10_nt9" to="nt9_nt13"/>
    <trip id="evening112" type="griddistrandom" depart="517.00" departPos="70.54" arrivalPos="117.43" from="nt13_nt9" to="nt10_nt14"/>
    <trip id="evening113" type="griddistrandom" depart="518.00" departPos="173.42" arrivalPos="21.55" from="nt6_nt10" to="nt7_nt3"/>
    <trip id="evening114" type="griddistrandom" depart="527.00" departPos="11.33" arrivalPos="166.01" from="np5_nt4" to="nt11_nt15"/>
    <trip id="evening115" type="griddistrandom" depart="530.00" departPos="37.23" arrivalPos="94.04" from="np11_nt14" to="nt5_nt9"/>
    <trip id="evening116" type="griddistrandom" depart="536.00" departPos="34.16" arrivalPos="14.69" from="np11_nt14" to="nt3_np3"/>
    <trip id="evening117" type="griddistrandom" depart="536.00" departPos="0.66" arrivalPos="39.81" from="np11_nt14" to="nt15_np10"/>
    <trip id="evening118" type="griddistrandom" depart="540.00" departPos="121.95" arrivalPos="43.72" from="nt5_nt6" to="nt3_nt7"/>
    <trip id="evening119" type="griddistrandom" depart="541.00" departPos="102.24" arrivalPos="15.84" from="nt12_nt8" to="nt4_np5"/>
    <trip id="evening120" type="griddistrandom" depart="544.00" departPos="49.51" arrivalPos="124.61" from="np8_nt16" to="nt10_nt11"/>
    <trip id="evening121" type="griddistrandom" depart="551.00" departPos="34.16" arrivalPos="1.87" from="nt6_nt7" to="nt8_nt12"/>
    <trip id="evening122" type="griddistrandom" depart="553.00" departPos="142.86" arrivalPos="167.97" from="nt10_nt9" to="nt8_nt7"/>
    <trip id="evening123" type="griddistrandom" depart="564.00" departPos="7.08" arrivalPos="60.01" from="nt6_nt5" to="nt16_np9"/>
    <trip id="evening124" type="griddistrandom" depart="571.00" departPos="172.27" arrivalPos="40.25" from="nt5_nt6" to="nt16_np8"/>
    <trip id="evening125" type="griddistrandom" depart="575.00" departPos="32.54" arrivalPos="149.13" from="nt11_nt15" to="nt13_nt9"/>
    <trip id="evening126" type="griddistrandom" depart="575.00" departPos="167.83" arrivalPos="31.71" from="nt8_nt4" to="nt13_nt9"/>
    <trip id="evening127" type="griddistrandom" depart="582.00" departPos="35.58" arrivalPos="101.61" from="nt9_nt13" to="nt4_nt3"/>
    <trip id="evening128" type="griddistrandom" depart="596.00" departPos="22.19" arrivalPos="140.17" from="np2_nt2" to="nt13_nt14"/>
    <trip id="evening129" type="griddistrandom" depart="597.00" departPos="16.02" arrivalPos="121.45" from="nt7_nt8" to="nt3_nt4"/>
    <trip id="evening130" type="griddistrandom" depart="601.00" departPos="0.41" arrivalPos="59.60" from="nt7_nt3" to="nt2_nt3"/>
    <trip id="evening131" type="griddistrandom" depart="604.00" departPos="33.14" arrivalPos="33.93" from="np12_nt13" to="nt3_np3"/>
    <trip id="evening132" type="griddistrandom" depart="610.00" departPos="64.82" arrivalPos="40.25" from="nt6_nt5" to="nt4_np4"/>
    <trip id="evening133" type="griddistrandom" depart="614.00" departPos="172.77" arrivalPos="33.68" from="nt4_nt8" to="nt15_np10"/>
    <trip id="evening134" type="griddistrandom" depart="615.00" departPos="118.55" arrivalPos="41.75" from="nt12_nt8" to="nt3_np3"/>
    <trip id="evening135" type="griddistrandom" depart="623.00" departPos="9.34" arrivalPos="60.42" from="nt9_nt10" to="nt9_np14"/>
    <trip id="evening136" type="griddistrandom" depart="627.00" departPos="34.63" arrivalPos="49.19" from="np13_nt13" to="nt13_nt9"/>
    <trip id="evening137" type="griddistrandom" depart="655.00" departPos="62.31" arrivalPos="57.71" from="np13_nt13" to="nt4_nt8"/>
    <trip id="evening138" type="griddistrandom" depart="655.00" departPos="110.01" arrivalPos="106.71" from="nt10_nt6" to="nt10_nt6"/>
    <trip id="evening139" type="griddistrandom" depart="665.00" departPos="55.19" arrivalPos="5.05" from="nt12_nt16" to="nt5_nt1"/>
    <trip id="evening140" type="griddistrandom" depart="668.00" departPos="101.31" arrivalPos="37.88" from="nt14_nt13" to="nt9_np14"/>
    <trip id="evening141" type="griddistrandom" depart="676.00" departPos="45.67" arrivalPos="63.64" from="nt15_nt14" to="nt9_np14"/>
    <trip id="evening142" type="griddistrandom" depart="677.00" departPos="5.11" arrivalPos="143.04" from="nt2_nt1" to="nt14_nt10"/>
    <trip id="evening143" type="griddistrandom" depart="680.00" departPos="136.37" arrivalPos="62.71" from="nt5_nt1" to="nt16_nt12"/>
    <trip id="evening144" type="griddistrandom" depart="687.00" departPos="123.34" arrivalPos="163.97" from="nt3_nt4" to="nt14_nt15"/>
    <trip id="evening145" type="griddistrandom" depart="688.00" departPos="38.74" arrivalPos="35.36" from="np15_nt5" to="nt9_nt5"/>
    <trip id="evening146" type="griddistrandom" depart="692.00" departPos="24.68" arrivalPos="100.11" from="np1_nt1" to="nt11_nt15"/>
    <trip id="evening147" type="griddistrandom" depart="699.00" departPos="182.17" arrivalPos="95.65" from="nt7_nt8" to="nt4_nt3"/>
    <trip id="evening148" type="griddistrandom" depart="702.00" departPos="159.31" arrivalPos="3.31" from="nt7_nt6" to="nt4_np4"/>
    <trip id="evening149" type="griddistrandom" depart="707.00" departPos="174.12" arrivalPos="48.26" from="nt6_nt2" to="nt4_nt8"/>
    <trip id="evening150" type="griddistrandom" depart="713.00" departPos="26.90" arrivalPos="14.44" from="nt1_nt2" to="nt8_np6"/>
    <trip id="evening151" type="griddistrandom" depart="715.00" departPos="9.79" arrivalPos="112.09" from="np14_nt9" to="nt9_nt13"/>
    <trip id="evening152" type="griddistrandom" depart="720.00" departPos="43.37" arrivalPos="51.76" from="nt10_nt6" to="nt15_np10"/>
    <trip id="evening153" type="griddistrandom" depart="737.00" departPos="75.80" arrivalPos="88.16" from="nt4_nt8" to="nt11_nt15"/>
    <trip id="evening154" type="griddistrandom" depart="742.00" departPos="29.60" arrivalPos="130.32" from="np13_nt13" to="nt5_nt9"/>
    <trip id="evening155" type="griddistrandom" depart="745.00" departPos="112.72" arrivalPos="97.24" from="nt14_nt15" to="nt8_nt12"/>
    <trip id="evening156" type="griddistrandom" depart="756.00" departPos="81.42" arrivalPos="141.73" from="nt7_nt3" to="nt5_nt6"/>
    <trip id="evening157" type="griddistrandom" depart="760.00" departPos="128.42" arrivalPos="66.63" from="nt11_nt12" to="nt1_nt5"/>
    <trip id="evening158" type="griddistrandom" depart="768.00" departPos="114.08" arrivalPos="79.98" from="nt6_nt10" to="nt12_nt16"/>
    <trip id="evening159" type="griddistrandom" depart="771.00" departPos="72.32" arrivalPos="130.63" from="nt3_nt2" to="nt10_nt6"/>
    <trip id="evening160" type="griddistrandom" depart="778.00" departPos="50.38" arrivalPos="2.22" from="np12_nt13" to="nt9_np14"/>
    <trip id="evening161" type="griddistrandom" depart="778.00" departPos="177.71" arrivalPos="67.87" from="nt9_nt5" to="nt7_nt8"/>
    <trip id="evening162" type="griddistrandom" depart="781.00" departPos="146.90" arrivalPos="87.30" from="nt8_nt4" to="nt11_nt15"/>
    <trip id="evening163" type="griddistrandom" depart="788.00" departPos="7.84" arrivalPos="6.40" from="np2_nt2" to="nt11_nt12"/>
    <trip id="evening164" type="griddistrandom" depart="794.00" departPos="127.64" arrivalPos="81.29" from="nt9_nt5" to="nt9_nt10"/>
    <trip id="evening165" type="griddistrandom" depart="795.00" departPos="181.59" arrivalPos="42.05" from="nt2_nt3" to="nt6_nt5"/>
    <trip id="evening166" type="griddistrandom" depart="796.00" departPos="41.40" arrivalPos="134.72" from="nt5_nt1" to="nt3_nt2"/>
    <trip id="evening167" type="griddistrandom" depart="799.00" departPos="6.23" arrivalPos="25.64" from="nt11_nt12" to="nt14_np11"/>
    <trip id="evening168" type="griddistrandom" depart="810.00" departPos="118.16" arrivalPos="10.61" from="nt6_nt2" to="nt11_nt12"/>
    <trip id="evening169" type="griddistrandom" depart="813.00" departPos="47.43" arrivalPos="0.82" from="nt10_nt6" to="nt16_nt15"/>
    <trip id="evening170" type="griddistrandom" depart="821.00" departPos="142.52" arrivalPos="143.65" from="nt1_nt2" to="nt11_nt7"/>
    <trip id="evening171" type="griddistrandom" depart="821.00" departPos="150.27" arrivalPos="123.51" from="nt7_nt11" to="nt2_nt1"/>
    <trip id="evening172" type="griddistrandom" depart="825.00" departPos="134.44" arrivalPos="158.02" from="nt11_nt12" to="nt7_nt3"/>
    <trip id="evening173" type="griddistrandom" depart="844.00" departPos="79.01" arrivalPos="97.93" from="nt4_nt8" to="nt15_nt16"/>
    <trip id="evening174" type="griddistrandom" depart="851.00" departPos="184.06" arrivalPos="58.47" from="nt5_nt6" to="nt7_nt8"/>
    <trip id="evening175" type="griddistrandom" depart="854.00" departPos="122.94" arrivalPos="6.65" from="nt12_nt11" to="nt12_nt11"/>
    <trip id="evening176" type="griddistrandom" depart="863.00" departPos="156.98" arrivalPos="149.38" from="nt11_nt10" to="nt7_nt3"/>
    <trip id="evening177" type="griddistrandom" depart="863.00" departPos="127.32" arrivalPos="30.86" from="nt2_nt6" to="nt2_np2"/>
    <trip id="evening178" type="griddistrandom" depart="867.00" departPos="179.53" arrivalPos="106.38" from="nt5_nt6" to="nt8_nt4"/>
    <trip id="evening179" type="griddistrandom" depart="868.00" departPos="6.80" arrivalPos="132.63" from="np6_nt8" to="nt14_nt15"/>
    <trip id="evening180" type="griddistrandom" depart="879.00" departPos="64.60" arrivalPos="148.61" from="nt10_nt9" to="nt16_nt12"/>
    <trip id="evening181" type="griddistrandom" depart="883.00" departPos="72.16" arrivalPos="59.03" from="np10_nt15" to="nt16_nt15"/>
    <trip id="evening182" type="griddistrandom" depart="886.00" departPos="34.99" arrivalPos="16.09" from="np10_nt15" to="nt2_nt6"/>
    <trip id="evening183" type="griddistrandom" depart="889.00" departPos="62.88" arrivalPos="86.06" from="np2_nt2" to="nt6_nt2"/>
    <trip id="evening184" type="griddistrandom" depart="890.00" departPos="123.27" arrivalPos="160.86" from="nt5_nt1" to="nt13_nt14"/>
    <trip id="evening185" type="griddistrandom" depart="893.00" departPos="65.76" arrivalPos="36.21" from="nt9_nt5" to="nt4_np5"/>
    <trip id="evening186" type="griddistrandom" depart="898.00" departPos="47.01" arrivalPos="28.49" from="np2_nt2" to="nt6_nt5"/>
    <trip id="evening187" type="griddistrandom" depart="903.00" departPos="35.85" arrivalPos="59.35" from="nt5_nt9" to="nt9_nt10"/>
    <trip id="evening188" type="griddistrandom" depart="904.00" departPos="161.61" arrivalPos="159.77" from="nt12_nt16" to="nt8_nt7"/>
    <trip id="evening189" type="griddistrandom" depart="909.00" departPos="81.47" arrivalPos="88.76" from="nt11_nt7" to="nt14_nt13"/>
    <trip id="evening190" type="griddistrandom" depart="921.00" departPos="94.78" arrivalPos="43.79" from="nt3_nt4" to="nt5_nt1"/>
    <trip id="evening191" type="griddistrandom" depart="924.00" departPos="119.46" arrivalPos="9.85" from="nt2_nt6" to="nt1_np16"/>
    <trip id="evening192" type="griddistrandom" depart="933.00" departPos="150.87" arrivalPos="54.17" from="nt4_nt3" to="nt6_nt5"/>
    <trip id="evening193" type="griddistrandom" depart="934.00" departPos="91.64" arrivalPos="119.10" from="nt9_nt13" to="nt3_nt4"/>
    <trip id="evening194" type="griddistrandom" depart="936.00" departPos="114.73" arrivalPos="71.51" from="nt16_nt12" to="nt9_nt5"/>
    <trip id="evening195" type="griddistrandom" depart="944.00" departPos="94.73" arrivalPos="19.54" from="nt7_nt8" to="nt10_nt9"/>
    <trip id="evening196" type="griddistrandom" depart="966.00" departPos="47.94" arrivalPos="157.52" from="np9_nt16" to="nt12_nt16"/>
    <trip id="evening197" type="griddistrandom" depart="968.00" departPos="100.26" arrivalPos="4.74" from="nt12_nt8" to="nt16_np9"/>
    <trip id="evening198" type="griddistrandom" depart="968.00" departPos="16.65" arrivalPos="76.39" from="np2_nt2" to="nt1_nt5"/>
    <trip id="evening199" type="griddistrandom" depart="970.00" departPos="165.57" arrivalPos="58.26" from="nt9_nt10" to="nt15_nt16"/>
    <trip id="evening200" type="griddistrandom" depart="975.00" departPos="60.66" arrivalPos="51.56" from="np9_nt16" to="nt9_np14"/>
    <trip id="evening201" type="griddistrandom" depart="988.00" departPos="27.84" arrivalPos="69.75" from="np2_nt2" to="nt14_nt13"/>
    <trip id="evening202" type="griddistrandom" depart="995.00" departPos="119.33" arrivalPos="44.63" from="nt5_nt9" to="nt16_np8"/>
    <trip id="evening203" type="griddistrandom" depart="997.00" departPos="175.36" arrivalPos="48.64" from="nt3_nt2" to="nt16_np8"/>
    <trip id="evening204" type="griddistrandom" depart="998.00" departPos="84.37" arrivalPos="40.35" from="nt7_nt8" to="nt12_nt11"/>
    <trip id="evening205" type="griddistrandom" depart="1006.00" departPos="35.18" arrivalPos="138.31" from="np4_nt4" to="nt6_nt5"/>
    <trip id="evening206" type="griddistrandom" depart="1024.00" departPos="29.70" arrivalPos="64.13" from="nt4_nt8" to="nt4_nt3"/>
    <trip id="evening207" type="griddistrandom" depart="1028.00" departPos="25.83" arrivalPos="50.64" from="nt8_nt12" to="nt10_nt9"/>
    <trip id="evening208" type="griddistrandom" depart="1032.00" departPos="105.50" arrivalPos="96.55" from="nt10_nt9" to="nt16_nt12"/>
    <trip id="evening209" type="griddistrandom" depart="1034.00" departPos="169.29" arrivalPos="112.72" from="nt3_nt7" to="nt7_nt3"/>
    <trip id="evening210" type="griddistrandom" depart="1040.00" departPos="35.06" arrivalPos="101.38" from="nt11_nt12" to="nt9_nt10"/>
    <trip id="evening211" type="griddistrandom" depart="1046.00" departPos="85.58" arrivalPos="87.95" from="nt5_nt9" to="nt16_nt15"/>
    <trip id="evening212" type="griddistrandom" depart="1046.00" departPos="122.58" arrivalPos="5.93" from="nt2_nt1" to="nt15_nt16"/>
    <trip id="evening213" type="griddistrandom" depart="1048.00" departPos="62.52" arrivalPos="17.52" from="np4_nt4" to="nt3_np3"/>
    <trip id="evening214" type="griddistrandom" depart="1052.00" departPos="63.13" arrivalPos="176.63" from="nt3_nt4" to="nt13_nt14"/>