<?xml version="1.0" encoding="UTF-8"?>

<!-- generated on 2024-06-06 14:13:03.771782 by randomTrips.py UNKNOWN
<configuration>
    <net-file value="grid4x4.net.xml"/>
    <output-trip-file value="random/random15.rou.xml"/>
    <prefix value="random"/>
    <trip-attributes value="type=&quot;griddistrandom&quot;"/>
    <random-departpos value="True"/>
    <random-arrivalpos value="True"/>
    <validate value="True"/>
    <period value="5.0"/>
    <random-depart value="True"/>
</configuration>
-->

<!-- generated on 2024-06-06 14:13:03 by Eclipse SUMO duarouter Version 1.19.0
<configuration xmlns:xsi="http://www.w3.org/2001/XMLSchema-instance" xsi:noNamespaceSchemaLocation="http://sumo.dlr.de/xsd/duarouterConfiguration.xsd">

    <input>
        <net-file value="grid4x4.net.xml"/>
        <route-files value="random/random15.rou.xml"/>
    </input>

    <output>
        <output-file value="routes.rou.xml"/>
        <alternatives-output value="NUL"/>
    </output>

    <time>
        <begin value="0"/>
        <end value="3600"/>
    </time>

    <report>
        <no-warnings value="true"/>
        <ignore-errors value="true"/>
        <no-step-log value="true"/>
    </report>

</configuration>
-->

<routes xmlns:xsi="http://www.w3.org/2001/XMLSchema-instance" xsi:noNamespaceSchemaLocation="http://sumo.dlr.de/xsd/routes_file.xsd">
    <vehicle id="random0" type="griddistrandom" depart="1.00" departPos="60.49" arrivalPos="27.35">
        <route edges="np9_nt16 nt16_nt15 nt15_nt14 nt14_np11 np11_nt14 nt14_nt15"/>
    </vehicle>
    <vehicle id="random1" type="griddistrandom" depart="2.00" departPos="45.85" arrivalPos="137.71">
        <route edges="np12_nt13 nt13_nt9 nt9_np14 np14_nt9 nt9_nt13"/>
    </vehicle>
    <vehicle id="random2" type="griddistrandom" depart="6.00" departPos="103.16" arrivalPos="53.88">
        <route edges="nt14_nt10 nt10_nt6 nt6_nt7 nt7_nt8 nt8_np6"/>
    </vehicle>
    <vehicle id="random3" type="griddistrandom" depart="8.00" departPos="27.39" arrivalPos="51.57">
        <route edges="nt12_nt11 nt11_nt15 nt15_nt16 nt16_np9"/>
    </vehicle>
    <vehicle id="random4" type="griddistrandom" depart="13.00" departPos="164.34" arrivalPos="144.47">
        <route edges="nt7_nt8"/>
    </vehicle>
    <vehicle id="random5" type="griddistrandom" depart="14.00" departPos="52.19" arrivalPos="86.22">
        <route edges="np8_nt16 nt16_nt15 nt15_nt14 nt14_nt10 nt10_nt6 nt6_nt7"/>
    </vehicle>
    <vehicle id="random6" type="griddistrandom" depart="26.00" departPos="21.75" arrivalPos="23.89">
        <route edges="nt16_nt12 nt12_nt8 nt8_nt4"/>
    </vehicle>
    <vehicle id="random7" type="griddistrandom" depart="29.00" departPos="100.16" arrivalPos="58.89">
        <route edges="nt14_nt10 nt10_nt6 nt6_nt2 nt2_nt1"/>
    </vehicle>
    <vehicle id="random8" type="griddistrandom" depart="32.00" departPos="151.27" arrivalPos="57.62">
        <route edges="nt5_nt6 nt6_nt2 nt2_nt1 nt1_np1"/>
    </vehicle>
    <vehicle id="random9" type="griddistrandom" depart="38.00" departPos="82.76" arrivalPos="28.52">
        <route edges="nt13_nt14 nt14_nt15 nt15_nt16 nt16_nt12 nt12_nt8 nt8_nt4"/>
    </vehicle>
    <vehicle id="random10" type="griddistrandom" depart="39.00" departPos="134.72" arrivalPos="54.26">
        <route edges="nt7_nt3 nt3_nt2 nt2_nt1 nt1_np1"/>
    </vehicle>
    <vehicle id="random11" type="griddistrandom" depart="47.00" departPos="86.84" arrivalPos="42.87">
        <route edges="nt10_nt14 nt14_np11 np11_nt14 nt14_nt10 nt10_nt6 nt6_nt2"/>
    </vehicle>
    <vehicle id="random12" type="griddistrandom" depart="60.00" departPos="42.02" arrivalPos="60.18">
        <route edges="nt13_nt9 nt9_nt5 nt5_nt1"/>
    </vehicle>
    <vehicle id="random13" type="griddistrandom" depart="79.00" departPos="27.99" arrivalPos="71.09">
        <route edges="nt7_nt8 nt8_np6 np6_nt8 nt8_nt7 nt7_nt11 nt11_nt12"/>
    </vehicle>
    <vehicle id="random14" type="griddistrandom" depart="86.00" departPos="26.80" arrivalPos="22.43">
        <route edges="np3_nt3 nt3_nt7 nt7_nt11 nt11_nt15 nt15_nt14 nt14_nt13 nt13_np13"/>
    </vehicle>
    <vehicle id="random15" type="griddistrandom" depart="96.00" departPos="149.25" arrivalPos="72.29">
        <route edges="nt14_nt10 nt10_nt9"/>
    </vehicle>
    <vehicle id="random16" type="griddistrandom" depart="101.00" departPos="3.50" arrivalPos="59.71">
        <route edges="nt5_nt9 nt9_np14"/>
    </vehicle>
    <vehicle id="random17" type="griddistrandom" depart="102.00" departPos="174.97" arrivalPos="55.42">
        <route edges="nt16_nt15 nt15_nt14 nt14_nt13 nt13_nt9 nt9_nt5 nt5_nt1 nt1_nt2"/>
    </vehicle>
    <vehicle id="random18" type="griddistrandom" depart="108.00" departPos="155.11" arrivalPos="96.45">
        <route edges="nt12_nt11 nt11_nt7 nt7_nt8 nt8_nt12"/>
    </vehicle>
    <vehicle id="random19" type="griddistrandom" depart="113.00" departPos="160.89" arrivalPos="90.62">
        <route edges="nt5_nt1 nt1_nt2 nt2_nt6 nt6_nt7"/>
    </vehicle>
    <vehicle id="random20" type="griddistrandom" depart="122.00" departPos="69.68" arrivalPos="119.86">
        <route edges="nt10_nt14 nt14_nt13 nt13_nt9 nt9_nt5 nt5_nt1 nt1_np16 np16_nt1 nt1_nt5"/>
    </vehicle>
    <vehicle id="random21" type="griddistrandom" depart="128.00" departPos="150.62" arrivalPos="170.67">
        <route edges="nt6_nt2 nt2_nt1 nt1_nt5 nt5_nt6"/>
    </vehicle>
    <vehicle id="random22" type="griddistrandom" depart="130.00" departPos="162.52" arrivalPos="109.86">
        <route edges="nt9_nt13 nt13_nt14 nt14_nt10 nt10_nt6 nt6_nt2 nt2_nt3"/>
    </vehicle>
    <vehicle id="random23" type="griddistrandom" depart="131.00" departPos="79.55" arrivalPos="160.89">
        <route edges="nt3_nt2 nt2_nt6 nt6_nt10 nt10_nt11 nt11_nt12"/>
    </vehicle>
    <vehicle id="random24" type="griddistrandom" depart="147.00" departPos="24.55" arrivalPos="34.10">
        <route edges="np5_nt4 nt4_nt3 nt3_nt2 nt2_nt6 nt6_nt10 nt10_nt14 nt14_np11"/>
    </vehicle>
    <vehicle id="random25" type="griddistrandom" depart="156.00" departPos="51.64" arrivalPos="71.34">
        <route edges="nt11_nt12 nt12_nt8 nt8_np6"/>
    </vehicle>
    <vehicle id="random26" type="griddistrandom" depart="158.00" departPos="84.28" arrivalPos="134.23">
        <route edges="nt12_nt8 nt8_nt7 nt7_nt3"/>
    </vehicle>
    <vehicle id="random27" type="griddistrandom" depart="162.00" departPos="15.20" arrivalPos="4.65">
        <route edges="np13_nt13 nt13_nt9 nt9_np14"/>
    </vehicle>
    <vehicle id="random28" type="griddistrandom" depart="163.00" departPos="5.76" arrivalPos="44.31">
        <route edges="nt9_nt10 nt10_nt6"/>
    </vehicle>
    <vehicle id="random29" type="griddistrandom" depart="171.00" departPos="44.27" arrivalPos="84.86">
        <route edges="nt6_nt7 nt7_nt3 nt3_np3 np3_nt3 nt3_nt7"/>
    </vehicle>
    <vehicle id="random30" type="griddistrandom" depart="177.00" departPos="30.04" arrivalPos="17.37">
        <route edges="np1_nt1 nt1_nt5 nt5_nt9 nt9_np14"/>
    </vehicle>
    <vehicle id="random31" type="griddistrandom" depart="180.00" departPos="172.70" arrivalPos="133.33">
        <route edges="nt11_nt7 nt7_nt3 nt3_nt4"/>
    </vehicle>
    <vehicle id="random32" type="griddistrandom" depart="181.00" departPos="55.74" arrivalPos="103.70">
        <route edges="nt5_nt9 nt9_nt10 nt10_nt11 nt11_nt12 nt12_nt16"/>
    </vehicle>
    <vehicle id="random33" type="griddistrandom" depart="187.00" departPos="162.72" arrivalPos="24.24">
        <route edges="nt8_nt4 nt4_nt3 nt3_np3"/>
    </vehicle>
    <vehicle id="random34" type="griddistrandom" depart="192.00" departPos="109.89" arrivalPos="62.29">
        <route edges="nt8_nt7 nt7_nt6 nt6_nt5 nt5_nt9 nt9_nt13 nt13_np12"/>
    </vehicle>
    <vehicle id="random35" type="griddistrandom" depart="205.00" departPos="22.62" arrivalPos="46.39">
        <route edges="np9_nt16 nt16_nt12 nt12_nt8 nt8_nt7 nt7_nt6 nt6_nt5 nt5_np15"/>
    </vehicle>
    <vehicle id="random36" type="griddistrandom" depart="207.00" departPos="101.42" arrivalPos="7.62">
        <route edges="nt6_nt2 nt2_np2 np2_nt2 nt2_nt6 nt6_nt5"/>
    </vehicle>
    <vehicle id="random37" type="griddistrandom" depart="208.00" departPos="12.80" arrivalPos="120.18">
        <route edges="nt15_nt16 nt16_nt12 nt12_nt8 nt8_nt4 nt4_nt3"/>
    </vehicle>
    <vehicle id="random38" type="griddistrandom" depart="221.00" departPos="36.77" arrivalPos="77.69">
        <route edges="np10_nt15 nt15_nt16 nt16_nt12"/>
    </vehicle>
    <vehicle id="random39" type="griddistrandom" depart="229.00" departPos="82.39" arrivalPos="27.42">
        <route edges="nt11_nt7 nt7_nt8 nt8_nt12"/>
    </vehicle>
    <vehicle id="random40" type="griddistrandom" depart="232.00" departPos="48.78" arrivalPos="114.31">
        <route edges="np5_nt4 nt4_nt3 nt3_nt2 nt2_nt1"/>
    </vehicle>
    <vehicle id="random41" type="griddistrandom" depart="234.00" departPos="83.31" arrivalPos="147.97">
        <route edges="nt8_nt12 nt12_nt11 nt11_nt10 nt10_nt6 nt6_nt2"/>
    </vehicle>
    <vehicle id="random42" type="griddistrandom" depart="237.00" departPos="45.56" arrivalPos="70.10">
        <route edges="nt1_nt2 nt2_nt3 nt3_nt7 nt7_nt11 nt11_nt15 nt15_np10"/>
    </vehicle>
    <vehicle id="random43" type="griddistrandom" depart="239.00" departPos="134.49" arrivalPos="36.81">
        <route edges="nt10_nt14 nt14_nt13 nt13_nt9 nt9_nt5 nt5_nt1 nt1_np1"/>
    </vehicle>
    <vehicle id="random44" type="griddistrandom" depart="240.00" departPos="91.74" arrivalPos="58.24">
        <route edges="nt3_nt2 nt2_nt6 nt6_nt10 nt10_nt14 nt14_nt15 nt15_nt11"/>
    </vehicle>
    <vehicle id="random45" type="griddistrandom" depart="241.00" departPos="47.95" arrivalPos="51.90">
        <route edges="nt14_nt15 nt15_np10 np10_nt15 nt15_nt14"/>
    </vehicle>
    <vehicle id="random46" type="griddistrandom" depart="248.00" departPos="99.60" arrivalPos="38.75">
        <route edges="nt1_nt5 nt5_nt6 nt6_nt7 nt7_nt8 nt8_np6"/>
    </vehicle>
    <vehicle id="random47" type="griddistrandom" depart="249.00" departPos="30.48" arrivalPos="99.49">
        <route edges="np6_nt8 nt8_nt7 nt7_nt6 nt6_nt10 nt10_nt14 nt14_nt13 nt13_nt9"/>
    </vehicle>
    <vehicle id="random48" type="griddistrandom" depart="260.00" departPos="53.39" arrivalPos="83.18">
        <route edges="np9_nt16 nt16_nt15 nt15_nt14 nt14_nt13 nt13_nt9 nt9_nt5 nt5_nt1 nt1_nt2"/>
    </vehicle>
    <vehicle id="random49" type="griddistrandom" depart="262.00" departPos="30.33" arrivalPos="45.16">
        <route edges="np11_nt14 nt14_nt13"/>
    </vehicle>
    <vehicle id="random50" type="griddistrandom" depart="271.00" departPos="102.72" arrivalPos="63.80">
        <route edges="nt3_nt2 nt2_nt6 nt6_nt10 nt10_nt14 nt14_nt15 nt15_nt16"/>
    </vehicle>
    <vehicle id="random51" type="griddistrandom" depart="276.00" departPos="63.04" arrivalPos="81.31">
        <route edges="nt9_nt5 nt5_nt1 nt1_nt2 nt2_nt6"/>
    </vehicle>
    <vehicle id="random52" type="griddistrandom" depart="278.00" departPos="133.87" arrivalPos="58.57">
        <route edges="nt10_nt9 nt9_nt13 nt13_nt14"/>
    </vehicle>
    <vehicle id="random53" type="griddistrandom" depart="280.00" departPos="123.68" arrivalPos="12.99">
        <route edges="nt5_nt1 nt1_np16 np16_nt1 nt1_nt5 nt5_nt9 nt9_np14"/>
    </vehicle>
    <vehicle id="random54" type="griddistrandom" depart="281.00" departPos="105.65" arrivalPos="136.23">
        <route edges="nt5_nt1 nt1_np16 np16_nt1 nt1_nt5 nt5_nt9 nt9_nt13 nt13_nt14 nt14_nt10"/>
    </vehicle>
    <vehicle id="random55" type="griddistrandom" depart="283.00" departPos="149.21" arrivalPos="53.09">
        <route edges="nt1_nt5 nt5_nt9 nt9_nt13"/>
    </vehicle>
    <vehicle id="random56" type="griddistrandom" depart="284.00" departPos="126.88" arrivalPos="23.49">
        <route edges="nt11_nt7 nt7_nt6 nt6_nt10 nt10_nt14 nt14_nt15"/>
    </vehicle>
    <vehicle id="random57" type="griddistrandom" depart="284.00" departPos="21.91" arrivalPos="175.22">
        <route edges="np12_nt13 nt13_nt14 nt14_nt10 nt10_nt9"/>
    </vehicle>
    <vehicle id="random58" type="griddistrandom" depart="286.00" departPos="19.04" arrivalPos="2.20">
        <route edges="nt2_nt3 nt3_nt7 nt7_nt6 nt6_nt10"/>
    </vehicle>
    <vehicle id="random59" type="griddistrandom" depart="290.00" departPos="61.05" arrivalPos="179.20">
        <route edges="nt10_nt6 nt6_nt5 nt5_nt1 nt1_nt2"/>
    </vehicle>
    <vehicle id="random60" type="griddistrandom" depart="290.00" departPos="21.17" arrivalPos="12.13">
        <route edges="nt10_nt11 nt11_nt7 nt7_nt8"/>
    </vehicle>
    <vehicle id="random61" type="griddistrandom" depart="292.00" departPos="127.41" arrivalPos="9.80">
        <route edges="nt14_nt15 nt15_nt11 nt11_nt7 nt7_nt3 nt3_np3"/>
    </vehicle>
    <vehicle id="random62" type="griddistrandom" depart="297.00" departPos="15.26" arrivalPos="16.83">
        <route edges="nt6_nt2 nt2_nt1 nt1_nt5 nt5_nt9 nt9_np14"/>
    </vehicle>
    <vehicle id="random63" type="griddistrandom" depart="300.00" departPos="106.83" arrivalPos="110.82">
        <route edges="nt16_nt12"/>
    </vehicle>
    <vehicle id="random64" type="griddistrandom" depart="308.00" departPos="162.80" arrivalPos="22.30">
        <route edges="nt5_nt9 nt9_nt13 nt13_nt14 nt14_nt15 nt15_nt16 nt16_np8"/>
    </vehicle>
    <vehicle id="random65" type="griddistrandom" depart="308.00" departPos="105.54" arrivalPos="11.18">
        <route edges="nt1_nt2 nt2_nt3 nt3_nt4 nt4_nt8 nt8_nt12 nt12_nt16 nt16_nt15"/>
    </vehicle>
    <vehicle id="random66" type="griddistrandom" depart="322.00" departPos="141.56" arrivalPos="112.09">
        <route edges="nt9_nt10 nt10_nt11 nt11_nt15"/>
    </vehicle>
    <vehicle id="random67" type="griddistrandom" depart="322.00" departPos="44.52" arrivalPos="102.45">
        <route edges="nt10_nt11 nt11_nt12"/>
    </vehicle>
    <vehicle id="random68" type="griddistrandom" depart="326.00" departPos="44.53" arrivalPos="84.21">
        <route edges="np4_nt4 nt4_nt8 nt8_nt12 nt12_nt16 nt16_np8 np8_nt16 nt16_nt12"/>
    </vehicle>
    <vehicle id="random69" type="griddistrandom" depart="328.00" departPos="21.20" arrivalPos="159.54">
        <route edges="np12_nt13 nt13_nt14 nt14_np11 np11_nt14 nt14_nt13"/>
    </vehicle>
    <vehicle id="random70" type="griddistrandom" depart="335.00" departPos="17.94" arrivalPos="146.86">
        <route edges="np14_nt9 nt9_nt13 nt13_nt14"/>
    </vehicle>
    <vehicle id="random71" type="griddistrandom" depart="347.00" departPos="36.72" arrivalPos="21.30">
        <route edges="nt1_nt2 nt2_nt6 nt6_nt7"/>
    </vehicle>
    <vehicle id="random72" type="griddistrandom" depart="350.00" departPos="19.92" arrivalPos="26.40">
        <route edges="np8_nt16 nt16_nt12 nt12_nt11"/>
    </vehicle>
    <vehicle id="random73" type="griddistrandom" depart="356.00" departPos="40.34" arrivalPos="152.98">
        <route edges="np13_nt13 nt13_nt14 nt14_nt10 nt10_nt6 nt6_nt5"/>
    </vehicle>
    <vehicle id="random74" type="griddistrandom" depart="372.00" departPos="83.99" arrivalPos="19.64">
        <route edges="nt8_nt12 nt12_nt11 nt11_nt10 nt10_nt9 nt9_nt5 nt5_nt1 nt1_np1"/>
    </vehicle>
    <vehicle id="random75" type="griddistrandom" depart="378.00" departPos="96.76" arrivalPos="78.45">
        <route edges="nt12_nt16 nt16_nt15 nt15_nt14 nt14_nt10"/>
    </vehicle>
    <vehicle id="random76" type="griddistrandom" depart="379.00" departPos="131.63" arrivalPos="45.28">
        <route edges="nt1_nt5 nt5_nt6 nt6_nt7 nt7_nt8 nt8_np6"/>
    </vehicle>
    <vehicle id="random77" type="griddistrandom" depart="382.00" departPos="50.57" arrivalPos="159.71">
        <route edges="np11_nt14 nt14_nt13 nt13_np13 np13_nt13 nt13_nt14"/>
    </vehicle>
    <vehicle id="random78" type="griddistrandom" depart="382.00" departPos="141.94" arrivalPos="147.20">
        <route edges="nt1_nt2 nt2_nt6 nt6_nt10 nt10_nt14"/>
    </vehicle>
    <vehicle id="random79" type="griddistrandom" depart="383.00" departPos="32.52" arrivalPos="93.00">
        <route edges="nt16_nt15 nt15_nt11 nt11_nt7 nt7_nt6 nt6_nt10"/>
    </vehicle>
    <vehicle id="random80" type="griddistrandom" depart="386.00" departPos="178.65" arrivalPos="78.11">
        <route edges="nt13_nt9 nt9_np14 np14_nt9 nt9_nt13 nt13_nt14 nt14_nt10"/>
    </vehicle>
    <vehicle id="random81" type="griddistrandom" depart="396.00" departPos="87.23" arrivalPos="73.18">
        <route edges="nt6_nt5 nt5_nt9 nt9_nt13"/>
    </vehicle>
    <vehicle id="random82" type="griddistrandom" depart="397.00" departPos="29.85" arrivalPos="73.77">
        <route edges="nt11_nt10 nt10_nt9 nt9_np14 np14_nt9 nt9_nt10 nt10_nt11 nt11_nt15"/>
    </vehicle>
    <vehicle id="random83" type="griddistrandom" depart="401.00" departPos="74.32" arrivalPos="141.15">
        <route edges="nt14_nt15 nt15_nt16 nt16_nt12 nt12_nt8 nt8_nt4 nt4_nt3"/>
    </vehicle>
    <vehicle id="random84" type="griddistrandom" depart="403.00" departPos="18.93" arrivalPos="21.52">
        <route edges="np12_nt13 nt13_nt9 nt9_nt10 nt10_nt11 nt11_nt12"/>
    </vehicle>
    <vehicle id="random85" type="griddistrandom" depart="409.00" departPos="147.83" arrivalPos="0.21">
        <route edges="nt5_nt9 nt9_nt10 nt10_nt6 nt6_nt7 nt7_nt8"/>
    </vehicle>
    <vehicle id="random86" type="griddistrandom" depart="413.00" departPos="9.71" arrivalPos="35.15">
        <route edges="nt7_nt3 nt3_nt2 nt2_nt1 nt1_np16"/>
    </vehicle>
    <vehicle id="random87" type="griddistrandom" depart="418.00" departPos="82.04" arrivalPos="9.25">
        <route edges="nt2_nt1 nt1_nt5"/>
    </vehicle>
    <vehicle id="random88" type="griddistrandom" depart="419.00" departPos="51.61" arrivalPos="66.06">
        <route edges="nt10_nt14 nt14_nt15 nt15_nt11 nt11_nt12 nt12_np7"/>
    </vehicle>
    <vehicle id="random89" type="griddistrandom" depart="421.00" departPos="116.93" arrivalPos="143.24">
        <route edges="nt14_nt15 nt15_nt11 nt11_nt10 nt10_nt14"/>
    </vehicle>
    <vehicle id="random90" type="griddistrandom" depart="424.00" departPos="2.54" arrivalPos="75.72">
        <route edges="nt4_nt3 nt3_nt2 nt2_nt6 nt6_nt10 nt10_nt14 nt14_nt15"/>
    </vehicle>
    <vehicle id="random91" type="griddistrandom" depart="435.00" departPos="8.51" arrivalPos="169.71">
        <route edges="np8_nt16 nt16_nt15 nt15_nt11 nt11_nt7 nt7_nt3"/>
    </vehicle>
    <vehicle id="random92" type="griddistrandom" depart="438.00" departPos="167.13" arrivalPos="54.17">
        <route edges="nt2_nt6 nt6_nt7 nt7_nt8 nt8_nt12 nt12_nt11"/>
    </vehicle>
    <vehicle id="random93" type="griddistrandom" depart="442.00" departPos="89.55" arrivalPos="84.62">
        <route edges="nt4_nt3 nt3_nt7 nt7_nt11 nt11_nt15 nt15_nt16 nt16_nt12"/>
    </vehicle>
    <vehicle id="random94" type="griddistrandom" depart="444.00" departPos="34.16" arrivalPos="111.24">
        <route edges="nt14_nt10 nt10_nt11 nt11_nt12 nt12_np7 np7_nt12 nt12_nt11"/>
    </vehicle>
    <vehicle id="random95" type="griddistrandom" depart="447.00" departPos="12.51" arrivalPos="57.95">
        <route edges="nt5_nt1 nt1_nt2 nt2_nt3 nt3_nt4 nt4_nt8 nt8_nt12 nt12_np7"/>
    </vehicle>
    <vehicle id="random96" type="griddistrandom" depart="449.00" departPos="141.16" arrivalPos="47.88">
        <route edges="nt7_nt11 nt11_nt15 nt15_np10 np10_nt15 nt15_nt11"/>
    </vehicle>
    <vehicle id="random97" type="griddistrandom" depart="456.00" departPos="62.81" arrivalPos="107.63">
        <route edges="np10_nt15 nt15_nt14 nt14_nt13 nt13_nt9 nt9_nt5 nt5_nt6"/>
    </vehicle>
    <vehicle id="random98" type="griddistrandom" depart="456.00" departPos="82.88" arrivalPos="89.89">
        <route edges="nt3_nt2 nt2_nt6 nt6_nt7 nt7_nt8"/>
    </vehicle>
    <vehicle id="random99" type="griddistrandom" depart="458.00" departPos="70.01" arrivalPos="167.17">
        <route edges="nt11_nt12 nt12_nt8 nt8_nt7 nt7_nt6 nt6_nt10"/>
    </vehicle>
    <vehicle id="random100" type="griddistrandom" depart="458.00" departPos="42.79" arrivalPos="68.63">
        <route edges="nt7_nt3 nt3_nt2 nt2_nt1 nt1_nt5 nt5_nt9 nt9_nt13"/>
    </vehicle>
    <vehicle id="random101" type="griddistrandom" depart="469.00" departPos="57.02" arrivalPos="84.76">
        <route edges="nt7_nt11 nt11_nt15 nt15_nt16 nt16_nt12"/>
    </vehicle>
    <vehicle id="random102" type="griddistrandom" depart="472.00" departPos="177.12" arrivalPos="59.43">
        <route edges="nt8_nt12 nt12_nt16 nt16_np8"/>
    </vehicle>
    <vehicle id="random103" type="griddistrandom" depart="472.00" departPos="172.90" arrivalPos="23.43">
        <route edges="nt2_nt6 nt6_nt7 nt7_nt8 nt8_nt12 nt12_nt11"/>
    </vehicle>
    <vehicle id="random104" type="griddistrandom" depart="473.00" departPos="18.63" arrivalPos="151.43">
        <route edges="nt9_nt10 nt10_nt14 nt14_nt15 nt15_nt11"/>
    </vehicle>
    <vehicle id="random105" type="griddistrandom" depart="491.00" departPos="1.04" arrivalPos="25.83">
        <route edges="np16_nt1 nt1_nt5 nt5_nt6 nt6_nt7 nt7_nt8 nt8_nt4"/>
    </vehicle>
    <vehicle id="random106" type="griddistrandom" depart="495.00" departPos="13.41" arrivalPos="140.05">
        <route edges="nt7_nt3 nt3_nt2 nt2_nt1 nt1_nt5 nt5_nt9 nt9_nt13"/>
    </vehicle>
    <vehicle id="random107" type="griddistrandom" depart="510.00" departPos="73.77" arrivalPos="14.39">
        <route edges="nt10_nt11 nt11_nt7 nt7_nt3 nt3_np3 np3_nt3 nt3_nt7"/>
    </vehicle>
    <vehicle id="random108" type="griddistrandom" depart="511.00" departPos="99.04" arrivalPos="170.98">
        <route edges="nt11_nt12 nt12_nt8 nt8_nt4 nt4_np5 np5_nt4 nt4_nt8"/>
    </vehicle>
    <vehicle id="random109" type="griddistrandom" depart="515.00" departPos="90.56" arrivalPos="40.58">
        <route edges="nt2_nt3 nt3_nt7 nt7_nt8 nt8_np6"/>
    </vehicle>
    <vehicle id="random110" type="griddistrandom" depart="521.00" departPos="127.02" arrivalPos="51.50">
        <route edges="nt2_nt1 nt1_nt5 nt5_nt9 nt9_nt13 nt13_np13 np13_nt13 nt13_nt9"/>
    </vehicle>
    <vehicle id="random111" type="griddistrandom" depart="522.00" departPos="73.38" arrivalPos="141.12">
        <route edges="np8_nt16 nt16_nt15 nt15_nt11 nt11_nt12"/>
    </vehicle>
    <vehicle id="random112" type="griddistrandom" depart="525.00" departPos="30.88" arrivalPos="53.66">
        <route edges="nt4_nt3 nt3_nt7 nt7_nt11 nt11_nt15"/>
    </vehicle>
    <vehicle id="random113" type="griddistrandom" depart="535.00" departPos="4.21" arrivalPos="26.88">
        <route edges="np11_nt14 nt14_nt15 nt15_np10"/>
    </vehicle>
    <vehicle id="random114" type="griddistrandom" depart="536.00" departPos="76.48" arrivalPos="122.18">
        <route edges="nt13_nt14 nt14_np11 np11_nt14 nt14_nt13 nt13_nt9"/>
    </vehicle>
    <vehicle id="random115" type="griddistrandom" depart="541.00" departPos="45.71" arrivalPos="68.55">
        <route edges="np5_nt4 nt4_nt8 nt8_nt12 nt12_np7 np7_nt12 nt12_nt8"/>
    </vehicle>
    <vehicle id="random116" type="griddistrandom" depart="542.00" departPos="108.23" arrivalPos="41.61">
        <route edges="nt3_nt4 nt4_np5 np5_nt4 nt4_nt3 nt3_nt2 nt2_nt1 nt1_nt5"/>
    </vehicle>
    <vehicle id="random117" type="griddistrandom" depart="550.00" departPos="123.77" arrivalPos="60.95">
        <route edges="nt2_nt3 nt3_np3 np3_nt3 nt3_nt2 nt2_nt1 nt1_np16"/>
    </vehicle>
    <vehicle id="random118" type="griddistrandom" depart="566.00" departPos="97.95" arrivalPos="13.71">
        <route edges="nt14_nt10 nt10_nt11 nt11_nt15 nt15_nt14 nt14_nt13"/>
    </vehicle>
    <vehicle id="random119" type="griddistrandom" depart="571.00" departPos="55.52" arrivalPos="172.40">
        <route edges="nt8_nt7 nt7_nt6 nt6_nt10 nt10_nt9 nt9_nt5"/>
    </vehicle>
    <vehicle id="random120" type="griddistrandom" depart="571.00" departPos="54.14" arrivalPos="67.76">
        <route edges="nt3_nt7 nt7_nt6 nt6_nt5 nt5_nt1 nt1_np16"/>
    </vehicle>
    <vehicle id="random121" type="griddistrandom" depart="574.00" departPos="68.34" arrivalPos="64.33">
        <route edges="nt7_nt11 nt11_nt15"/>
    </vehicle>
    <vehicle id="random122" type="griddistrandom" depart="585.00" departPos="3.93" arrivalPos="56.28">
        <route edges="nt10_nt6 nt6_nt5 nt5_np15"/>
    </vehicle>
    <vehicle id="random123" type="griddistrandom" depart="606.00" departPos="155.02" arrivalPos="144.45">
        <route edges="nt12_nt16 nt16_nt15 nt15_nt14 nt14_nt10 nt10_nt11"/>
    </vehicle>
    <vehicle id="random124" type="griddistrandom" depart="610.00" departPos="133.53" arrivalPos="149.24">
        <route edges="nt9_nt13 nt13_nt14 nt14_nt15 nt15_nt16 nt16_nt12 nt12_nt8 nt8_nt4"/>
    </vehicle>
    <vehicle id="random125" type="griddistrandom" depart="626.00" departPos="42.71" arrivalPos="143.71">
        <route edges="nt7_nt8 nt8_np6 np6_nt8 nt8_nt7 nt7_nt6 nt6_nt2"/>
    </vehicle>
    <vehicle id="random126" type="griddistrandom" depart="626.00" departPos="18.80" arrivalPos="56.67">
        <route edges="np8_nt16 nt16_nt15 nt15_nt14 nt14_nt13 nt13_np12"/>
    </vehicle>
    <vehicle id="random127" type="griddistrandom" depart="633.00" departPos="24.51" arrivalPos="17.41">
        <route edges="nt5_nt9 nt9_nt10 nt10_nt11 nt11_nt7 nt7_nt3 nt3_nt4 nt4_nt8"/>
    </vehicle>
    <vehicle id="random128" type="griddistrandom" depart="634.00" departPos="146.37" arrivalPos="5.98">
        <route edges="nt2_nt3 nt3_nt7 nt7_nt11 nt11_nt10 nt10_nt6"/>
    </vehicle>
    <vehicle id="random129" type="griddistrandom" depart="636.00" departPos="163.01" arrivalPos="24.50">
        <route edges="nt11_nt7 nt7_nt8 nt8_nt12 nt12_np7"/>
    </vehicle>
    <vehicle id="random130" type="griddistrandom" depart="636.00" departPos="140.94" arrivalPos="65.73">
        <route edges="nt12_nt8 nt8_nt7 nt7_nt6 nt6_nt5 nt5_nt9 nt9_nt13 nt13_np12"/>
    </vehicle>
    <vehicle id="random131" type="griddistrandom" depart="644.00" departPos="48.84" arrivalPos="10.63">
        <route edges="nt11_nt7 nt7_nt6 nt6_nt2 nt2_np2"/>
    </vehicle>
    <vehicle id="random132" type="griddistrandom" depart="646.00" departPos="173.36" arrivalPos="20.01">
        <route edges="nt8_nt12 nt12_nt11 nt11_nt10 nt10_nt9 nt9_np14"/>
    </vehicle>
    <vehicle id="random133" type="griddistrandom" depart="647.00" departPos="83.92" arrivalPos="13.98">
        <route edges="nt7_nt3 nt3_nt2 nt2_nt6 nt6_nt7"/>
    </vehicle>
    <vehicle id="random134" type="griddistrandom" depart="652.00" departPos="125.53" arrivalPos="125.17">
        <route edges="nt5_nt6 nt6_nt10 nt10_nt9 nt9_nt13 nt13_nt14"/>
    </vehicle>
    <vehicle id="random135" type="griddistrandom" depart="653.00" departPos="99.87" arrivalPos="16.76">
        <route edges="nt12_nt16 nt16_nt15 nt15_nt11 nt11_nt7 nt7_nt6"/>
    </vehicle>
    <vehicle id="random136" type="griddistrandom" depart="655.00" departPos="22.15" arrivalPos="27.64">
        <route edges="nt12_nt16 nt16_nt15 nt15_nt14 nt14_np11"/>
    </vehicle>
    <vehicle id="random137" type="griddistrandom" depart="661.00" departPos="68.28" arrivalPos="47.89">
        <route edges="nt5_nt1 nt1_nt2 nt2_nt6 nt6_nt10 nt10_nt14 nt14_np11"/>
    </vehicle>
    <vehicle id="random138" type="griddistrandom" depart="661.00" departPos="84.49" arrivalPos="111.02">
        <route edges="nt11_nt7 nt7_nt3 nt3_nt4 nt4_nt8"/>
    </vehicle>
    <vehicle id="random139" type="griddistrandom" depart="665.00" departPos="113.23" arrivalPos="48.57">
        <route edges="nt8_nt7 nt7_nt11 nt11_nt15 nt15_np10"/>
    </vehicle>
    <vehicle id="random140" type="griddistrandom" depart="666.00" departPos="130.12" arrivalPos="44.02">
        <route edges="nt2_nt3 nt3_np3 np3_nt3 nt3_nt2 nt2_nt1 nt1_np16"/>
    </vehicle>
    <vehicle id="random141" type="griddistrandom" depart="669.00" departPos="2.40" arrivalPos="178.47">
        <route edges="np1_nt1 nt1_nt5 nt5_nt9 nt9_nt10 nt10_nt6"/>
    </vehicle>
    <vehicle id="random142" type="griddistrandom" depart="674.00" departPos="34.73" arrivalPos="69.65">
        <route edges="np1_nt1 nt1_nt5 nt5_nt9 nt9_nt13 nt13_np13 np13_nt13 nt13_nt9"/>
    </vehicle>
    <vehicle id="random143" type="griddistrandom" depart="676.00" departPos="124.81" arrivalPos="36.63">
        <route edges="nt11_nt7 nt7_nt6 nt6_nt10 nt10_nt9 nt9_np14"/>
    </vehicle>
    <vehicle id="random144" type="griddistrandom" depart="681.00" departPos="164.33" arrivalPos="121.55">
        <route edges="nt1_nt2 nt2_nt6 nt6_nt5 nt5_np15 np15_nt5 nt5_nt6"/>
    </vehicle>
    <vehicle id="random145" type="griddistrandom" depart="695.00" departPos="174.29" arrivalPos="50.13">
        <route edges="nt6_nt7 nt7_nt3 nt3_np3 np3_nt3 nt3_nt7"/>
    </vehicle>
    <vehicle id="random146" type="griddistrandom" depart="700.00" departPos="79.69" arrivalPos="16.01">
        <route edges="nt3_nt7 nt7_nt11 nt11_nt15 nt15_nt14 nt14_nt13 nt13_np13"/>
    </vehicle>
    <vehicle id="random147" type="griddistrandom" depart="712.00" departPos="65.83" arrivalPos="161.58">
        <route edges="nt11_nt7 nt7_nt6 nt6_nt5 nt5_nt9 nt9_nt13"/>
    </vehicle>
    <vehicle id="random148" type="griddistrandom" depart="725.00" departPos="49.44" arrivalPos="179.70">
        <route edges="nt2_nt6 nt6_nt10 nt10_nt9"/>
    </vehicle>
    <vehicle id="random149" type="griddistrandom" depart="731.00" departPos="17.01" arrivalPos="38.01">
        <route edges="nt8_nt7 nt7_nt11"/>
    </vehicle>
    <vehicle id="random150" type="griddistrandom" depart="731.00" departPos="9.39" arrivalPos="59.76">
        <route edges="nt2_nt3 nt3_nt7 nt7_nt6 nt6_nt5 nt5_nt9 nt9_nt13"/>
    </vehicle>
    <vehicle id="random151" type="griddistrandom" depart="734.00" departPos="36.77" arrivalPos="154.01">
        <route edges="nt9_nt5 nt5_nt1 nt1_nt2 nt2_nt6 nt6_nt5"/>
    </vehicle>
    <vehicle id="random152" type="griddistrandom" depart="751.00" departPos="145.70" arrivalPos="43.24">
        <route edges="nt16_nt12 nt12_nt8 nt8_nt4 nt4_nt3 nt3_nt2"/>
    </vehicle>
    <vehicle id="random153" type="griddistrandom" depart="761.00" departPos="106.80" arrivalPos="51.46">