<?xml version="1.0" encoding="UTF-8"?>

<!-- generated on 2024-06-06 01:07:49.497106 by randomTrips.py UNKNOWN
<configuration>
    <net-file value="grid4x4.net.xml"/>
    <route-file value="comb_rando.rou.xml"/>
    <prefix value="random"/>
    <trip-attributes value="type=&quot;griddistrandom&quot;"/>
    <random-departpos value="True"/>
    <random-arrivalpos value="True"/>
    <begin value="21600.0"/>
    <end value="72000.0"/>
    <period value="5.0"/>
    <random-depart value="True"/>
</configuration>
-->

<routes xmlns:xsi="http://www.w3.org/2001/XMLSchema-instance" xsi:noNamespaceSchemaLocation="http://sumo.dlr.de/xsd/routes_file.xsd">
    <trip id="random0" depart="21606.00" from="np1_nt1" to="nt5_nt1" type="griddistrandom" departPos="28.11" arrivalPos="164.86"/>
    <trip id="random1" depart="21611.00" from="nt14_nt10" to="nt4_nt8" type="griddistrandom" departPos="21.24" arrivalPos="127.87"/>
    <trip id="random2" depart="21612.00" from="np6_nt8" to="nt7_nt8" type="griddistrandom" departPos="58.66" arrivalPos="53.45"/>
    <trip id="random3" depart="21612.00" from="nt14_nt15" to="nt12_np7" type="griddistrandom" departPos="158.94" arrivalPos="45.01"/>
    <trip id="random4" depart="21618.00" from="nt9_nt5" to="nt14_nt13" type="griddistrandom" departPos="121.35" arrivalPos="77.64"/>
    <trip id="random5" depart="21626.00" from="nt12_nt8" to="nt12_nt11" type="griddistrandom" departPos="52.00" arrivalPos="48.59"/>
    <trip id="random6" depart="21637.00" from="nt2_nt1" to="nt8_nt4" type="griddistrandom" departPos="68.60" arrivalPos="122.62"/>
    <trip id="random7" depart="21644.00" from="nt14_nt10" to="nt10_nt11" type="griddistrandom" departPos="23.87" arrivalPos="59.99"/>
    <trip id="random8" depart="21644.00" from="nt3_nt7" to="nt4_nt8" type="griddistrandom" departPos="127.83" arrivalPos="126.95"/>
    <trip id="random9" depart="21647.00" from="nt5_nt1" to="nt14_np11" type="griddistrandom" departPos="17.07" arrivalPos="4.41"/>
    <trip id="random10" depart="21655.00" from="nt11_nt12" to="nt13_nt9" type="griddistrandom" departPos="168.57" arrivalPos="178.62"/>
    <trip id="random11" depart="21656.00" from="nt8_nt7" to="nt9_nt10" type="griddistrandom" departPos="111.03" arrivalPos="138.87"/>
    <trip id="random12" depart="21671.00" from="np12_nt13" to="nt14_np11" type="griddistrandom" departPos="46.47" arrivalPos="22.69"/>
    <trip id="random13" depart="21675.00" from="nt12_nt16" to="nt15_nt16" type="griddistrandom" departPos="173.48" arrivalPos="103.85"/>
    <trip id="random14" depart="21678.00" from="nt1_nt2" to="nt14_np11" type="griddistrandom" departPos="93.50" arrivalPos="69.77"/>
    <trip id="random15" depart="21683.00" from="nt7_nt6" to="nt12_np7" type="griddistrandom" departPos="58.89" arrivalPos="39.78"/>
    <trip id="random16" depart="21689.00" from="np3_nt3" to="nt11_nt7" type="griddistrandom" departPos="2.85" arrivalPos="22.91"/>
    <trip id="random17" depart="21695.00" from="nt7_nt3" to="nt7_nt3" type="griddistrandom" departPos="134.01" arrivalPos="165.98"/>
    <trip id="random18" depart="21702.00" from="nt10_nt6" to="nt8_np6" type="griddistrandom" departPos="109.84" arrivalPos="57.12"/>
    <trip id="random19" depart="21703.00" from="nt10_nt11" to="nt15_np10" type="griddistrandom" departPos="165.68" arrivalPos="23.67"/>
    <trip id="random20" depart="21710.00" from="nt9_nt5" to="nt6_nt10" type="griddistrandom" departPos="27.11" arrivalPos="152.86"/>
    <trip id="random21" depart="21717.00" from="nt3_nt2" to="nt6_nt7" type="griddistrandom" departPos="9.88" arrivalPos="27.58"/>
    <trip id="random22" depart="21741.00" from="np8_nt16" to="nt10_nt6" type="griddistrandom" departPos="19.52" arrivalPos="126.51"/>
    <trip id="random23" depart="21743.00" from="nt13_nt14" to="nt9_nt5" type="griddistrandom" departPos="172.09" arrivalPos="7.31"/>
    <trip id="random24" depart="21760.00" from="nt11_nt15" to="nt5_nt1" type="griddistrandom" departPos="86.95" arrivalPos="88.34"/>
    <trip id="random25" depart="21762.00" from="nt7_nt11" to="nt7_nt8" type="griddistrandom" departPos="22.16" arrivalPos="17.37"/>
    <trip id="random26" depart="21768.00" from="nt7_nt3" to="nt12_nt8" type="griddistrandom" departPos="30.16" arrivalPos="91.17"/>
    <trip id="random27" depart="21768.00" from="nt10_nt14" to="nt8_nt12" type="griddistrandom" departPos="104.95" arrivalPos="104.57"/>
    <trip id="random28" depart="21775.00" from="nt9_nt13" to="nt2_nt1" type="griddistrandom" departPos="102.29" arrivalPos="77.29"/>
    <trip id="random29" depart="21779.00" from="np14_nt9" to="nt6_nt2" type="griddistrandom" departPos="45.89" arrivalPos="159.02"/>
    <trip id="random30" depart="21785.00" from="np11_nt14" to="nt4_nt8" type="griddistrandom" departPos="51.05" arrivalPos="70.64"/>
    <trip id="random31" depart="21797.00" from="nt1_nt2" to="nt9_np14" type="griddistrandom" departPos="155.34" arrivalPos="10.43"/>
    <trip id="random32" depart="21801.00" from="np15_nt5" to="nt7_nt3" type="griddistrandom" departPos="44.72" arrivalPos="81.37"/>
    <trip id="random33" depart="21812.00" from="nt9_nt10" to="nt3_nt4" type="griddistrandom" departPos="1.08" arrivalPos="179.99"/>
    <trip id="random34" depart="21816.00" from="nt2_nt6" to="nt9_np14" type="griddistrandom" departPos="58.22" arrivalPos="49.60"/>
    <trip id="random35" depart="21827.00" from="nt4_nt8" to="nt9_nt10" type="griddistrandom" departPos="101.99" arrivalPos="39.23"/>
    <trip id="random36" depart="21831.00" from="np13_nt13" to="nt4_np5" type="griddistrandom" departPos="21.91" arrivalPos="4.17"/>
    <trip id="random37" depart="21832.00" from="np14_nt9" to="nt9_np14" type="griddistrandom" departPos="25.86" arrivalPos="27.04"/>
    <trip id="random38" depart="21842.00" from="np5_nt4" to="nt9_nt10" type="griddistrandom" departPos="64.91" arrivalPos="16.55"/>
    <trip id="random39" depart="21850.00" from="nt7_nt11" to="nt12_nt16" type="griddistrandom" departPos="139.69" arrivalPos="51.06"/>
    <trip id="random40" depart="21869.00" from="nt5_nt6" to="nt4_np5" type="griddistrandom" departPos="22.38" arrivalPos="36.81"/>
    <trip id="random41" depart="21870.00" from="nt13_nt14" to="nt6_nt7" type="griddistrandom" departPos="57.55" arrivalPos="127.13"/>
    <trip id="random42" depart="21881.00" from="np2_nt2" to="nt4_nt3" type="griddistrandom" departPos="53.75" arrivalPos="95.15"/>
    <trip id="random43" depart="21883.00" from="nt14_nt15" to="nt8_np6" type="griddistrandom" departPos="88.43" arrivalPos="42.23"/>
    <trip id="random44" depart="21884.00" from="nt13_nt14" to="nt6_nt10" type="griddistrandom" departPos="150.52" arrivalPos="110.01"/>
    <trip id="random45" depart="21891.00" from="nt13_nt14" to="nt16_nt15" type="griddistrandom" departPos="7.51" arrivalPos="63.43"/>
    <trip id="random46" depart="21899.00" from="nt14_nt10" to="nt13_nt14" type="griddistrandom" departPos="122.97" arrivalPos="28.78"/>
    <trip id="random47" depart="21904.00" from="nt14_nt15" to="nt4_np4" type="griddistrandom" departPos="97.38" arrivalPos="18.78"/>
    <trip id="random48" depart="21905.00" from="nt13_nt14" to="nt8_nt4" type="griddistrandom" departPos="88.64" arrivalPos="26.63"/>
    <trip id="random49" depart="21908.00" from="np2_nt2" to="nt8_nt12" type="griddistrandom" departPos="54.36" arrivalPos="93.74"/>
    <trip id="random50" depart="21916.00" from="nt10_nt6" to="nt10_nt9" type="griddistrandom" departPos="13.71" arrivalPos="8.37"/>
    <trip id="random51" depart="21929.00" from="np16_nt1" to="nt16_nt15" type="griddistrandom" departPos="6.41" arrivalPos="122.65"/>
    <trip id="random52" depart="21932.00" from="nt16_nt15" to="nt14_np11" type="griddistrandom" departPos="47.30" arrivalPos="6.13"/>
    <trip id="random53" depart="21939.00" from="nt15_nt11" to="nt11_nt7" type="griddistrandom" departPos="118.55" arrivalPos="32.18"/>
    <trip id="random54" depart="21940.00" from="np5_nt4" to="nt16_np9" type="griddistrandom" departPos="6.25" arrivalPos="65.76"/>
    <trip id="random55" depart="21944.00" from="nt10_nt9" to="nt3_nt2" type="griddistrandom" departPos="84.45" arrivalPos="124.40"/>
    <trip id="random56" depart="21946.00" from="nt2_nt1" to="nt14_np11" type="griddistrandom" departPos="179.42" arrivalPos="65.35"/>
    <trip id="random57" depart="21958.00" from="np5_nt4" to="nt12_nt8" type="griddistrandom" departPos="56.03" arrivalPos="108.25"/>
    <trip id="random58" depart="21963.00" from="nt7_nt3" to="nt11_nt15" type="griddistrandom" departPos="95.76" arrivalPos="1.05"/>
    <trip id="random59" depart="21969.00" from="np1_nt1" to="nt12_nt16" type="griddistrandom" departPos="30.82" arrivalPos="123.97"/>
    <trip id="random60" depart="21976.00" from="nt7_nt3" to="nt9_nt10" type="griddistrandom" departPos="107.86" arrivalPos="90.34"/>
    <trip id="random61" depart="21986.00" from="nt2_nt1" to="nt9_nt13" type="griddistrandom" departPos="66.95" arrivalPos="120.75"/>
    <trip id="random62" depart="21986.00" from="nt3_nt7" to="nt16_np9" type="griddistrandom" departPos="54.24" arrivalPos="9.38"/>
    <trip id="random63" depart="22000.00" from="np10_nt15" to="nt11_nt7" type="griddistrandom" departPos="1.19" arrivalPos="173.92"/>
    <trip id="random64" depart="22001.00" from="nt7_nt11" to="nt13_np13" type="griddistrandom" departPos="116.23" arrivalPos="44.05"/>
    <trip id="random65" depart="22016.00" from="nt13_nt14" to="nt4_np4" type="griddistrandom" departPos="146.63" arrivalPos="12.33"/>
    <trip id="random66" depart="22017.00" from="nt10_nt9" to="nt1_np16" type="griddistrandom" departPos="87.97" arrivalPos="1.48"/>
    <trip id="random67" depart="22018.00" from="np4_nt4" to="nt12_nt11" type="griddistrandom" departPos="45.39" arrivalPos="178.89"/>
    <trip id="random68" depart="22025.00" from="nt14_nt13" to="nt7_nt8" type="griddistrandom" departPos="108.62" arrivalPos="37.37"/>
    <trip id="random69" depart="22030.00" from="nt16_nt15" to="nt7_nt3" type="griddistrandom" departPos="9.45" arrivalPos="1.41"/>
    <trip id="random70" depart="22030.00" from="nt2_nt3" to="nt5_nt1" type="griddistrandom" departPos="181.79" arrivalPos="152.07"/>
    <trip id="random71" depart="22032.00" from="nt5_nt1" to="nt3_nt4" type="griddistrandom" departPos="99.33" arrivalPos="53.97"/>
    <trip id="random72" depart="22033.00" from="nt14_nt15" to="nt1_nt5" type="griddistrandom" departPos="109.70" arrivalPos="109.58"/>
    <trip id="random73" depart="22033.00" from="nt3_nt4" to="nt7_nt11" type="griddistrandom" departPos="90.55" arrivalPos="128.00"/>
    <trip id="random74" depart="22034.00" from="nt15_nt14" to="nt16_nt15" type="griddistrandom" departPos="58.62" arrivalPos="11.79"/>
    <trip id="random75" depart="22043.00" from="nt7_nt8" to="nt16_nt12" type="griddistrandom" departPos="87.85" arrivalPos="88.67"/>
    <trip id="random76" depart="22047.00" from="nt8_nt7" to="nt15_nt14" type="griddistrandom" departPos="129.46" arrivalPos="3.86"/>
    <trip id="random77" depart="22066.00" from="nt10_nt6" to="nt13_np12" type="griddistrandom" departPos="61.62" arrivalPos="17.41"/>
    <trip id="random78" depart="22071.00" from="np8_nt16" to="nt8_nt4" type="griddistrandom" departPos="25.44" arrivalPos="107.90"/>
    <trip id="random79" depart="22071.00" from="nt6_nt7" to="nt4_nt3" type="griddistrandom" departPos="24.34" arrivalPos="54.45"/>
    <trip id="random80" depart="22073.00" from="nt4_nt3" to="nt9_nt10" type="griddistrandom" departPos="154.62" arrivalPos="124.93"/>
    <trip id="random81" depart="22073.00" from="nt5_nt1" to="nt6_nt5" type="griddistrandom" departPos="143.32" arrivalPos="156.75"/>
    <trip id="random82" depart="22080.00" from="nt2_nt1" to="nt14_nt13" type="griddistrandom" departPos="139.06" arrivalPos="123.81"/>
    <trip id="random83" depart="22081.00" from="np2_nt2" to="nt13_np12" type="griddistrandom" departPos="39.13" arrivalPos="7.57"/>
    <trip id="random84" depart="22086.00" from="nt12_nt8" to="nt9_nt5" type="griddistrandom" departPos="54.41" arrivalPos="37.53"/>
    <trip id="random85" depart="22103.00" from="np13_nt13" to="nt10_nt14" type="griddistrandom" departPos="59.73" arrivalPos="63.98"/>
    <trip id="random86" depart="22106.00" from="np4_nt4" to="nt7_nt11" type="griddistrandom" departPos="57.78" arrivalPos="5.73"/>
    <trip id="random87" depart="22112.00" from="np14_nt9" to="nt16_nt15" type="griddistrandom" departPos="41.87" arrivalPos="22.40"/>
    <trip id="random88" depart="22115.00" from="np8_nt16" to="nt14_np11" type="griddistrandom" departPos="25.52" arrivalPos="26.64"/>
    <trip id="random89" depart="22122.00" from="np12_nt13" to="nt8_np6" type="griddistrandom" departPos="20.06" arrivalPos="11.34"/>
    <trip id="random90" depart="22128.00" from="nt3_nt7" to="nt2_np2" type="griddistrandom" departPos="119.97" arrivalPos="45.63"/>
    <trip id="random91" depart="22130.00" from="nt8_nt4" to="nt1_np1" type="griddistrandom" departPos="81.92" arrivalPos="54.37"/>
    <trip id="random92" depart="22132.00" from="np1_nt1" to="nt11_nt15" type="griddistrandom" departPos="39.44" arrivalPos="140.16"/>
    <trip id="random93" depart="22135.00" from="nt8_nt7" to="nt7_nt11" type="griddistrandom" departPos="7.79" arrivalPos="18.89"/>
    <trip id="random94" depart="22137.00" from="nt2_nt3" to="nt7_nt8" type="griddistrandom" departPos="169.08" arrivalPos="29.15"/>
    <trip id="random95" depart="22145.00" from="nt10_nt6" to="nt1_np1" type="griddistrandom" departPos="90.66" arrivalPos="47.32"/>
    <trip id="random96" depart="22146.00" from="np16_nt1" to="nt4_np5" type="griddistrandom" departPos="22.69" arrivalPos="10.33"/>
    <trip id="random97" depart="22151.00" from="nt7_nt11" to="nt1_np1" type="griddistrandom" departPos="74.50" arrivalPos="49.68"/>
    <trip id="random98" depart="22154.00" from="np9_nt16" to="nt6_nt7" type="griddistrandom" departPos="25.60" arrivalPos="93.73"/>
    <trip id="random99" depart="22155.00" from="np15_nt5" to="nt15_nt16" type="griddistrandom" departPos="51.18" arrivalPos="66.94"/>
    <trip id="random100" depart="22155.00" from="nt3_nt2" to="nt12_nt11" type="griddistrandom" departPos="139.85" arrivalPos="78.27"/>
    <trip id="random101" depart="22176.00" from="np8_nt16" to="nt6_nt7" type="griddistrandom" departPos="31.01" arrivalPos="75.97"/>
    <trip id="random102" depart="22183.00" from="nt14_nt10" to="nt7_nt6" type="griddistrandom" departPos="142.39" arrivalPos="67.15"/>
    <trip id="random103" depart="22185.00" from="np11_nt14" to="nt12_nt11" type="griddistrandom" departPos="0.75" arrivalPos="149.64"/>
    <trip id="random104" depart="22198.00" from="nt8_nt7" to="nt11_nt12" type="griddistrandom" departPos="58.43" arrivalPos="182.25"/>
    <trip id="random105" depart="22199.00" from="np4_nt4" to="nt10_nt9" type="griddistrandom" departPos="49.04" arrivalPos="122.53"/>
    <trip id="random106" depart="22207.00" from="nt2_nt6" to="nt8_nt12" type="griddistrandom" departPos="10.36" arrivalPos="113.18"/>
    <trip id="random107" depart="22208.00" from="nt4_nt3" to="nt4_nt3" type="griddistrandom" departPos="96.47" arrivalPos="54.89"/>
    <trip id="random108" depart="22209.00" from="nt12_nt16" to="nt4_nt8" type="griddistrandom" departPos="99.21" arrivalPos="54.53"/>
    <trip id="random109" depart="22210.00" from="nt5_nt1" to="nt8_nt4" type="griddistrandom" departPos="1.42" arrivalPos="50.14"/>
    <trip id="random110" depart="22215.00" from="nt15_nt14" to="nt8_nt4" type="griddistrandom" departPos="129.97" arrivalPos="79.96"/>
    <trip id="random111" depart="22219.00" from="np7_nt12" to="nt2_nt3" type="griddistrandom" departPos="59.13" arrivalPos="121.02"/>
    <trip id="random112" depart="22228.00" from="nt3_nt7" to="nt8_np6" type="griddistrandom" departPos="140.06" arrivalPos="30.34"/>
    <trip id="random113" depart="22228.00" from="np6_nt8" to="nt14_nt15" type="griddistrandom" departPos="2.77" arrivalPos="62.08"/>
    <trip id="random114" depart="22233.00" from="nt4_nt8" to="nt5_nt9" type="griddistrandom" departPos="22.58" arrivalPos="177.75"/>
    <trip id="random115" depart="22233.00" from="nt10_nt6" to="nt11_nt12" type="griddistrandom" departPos="98.88" arrivalPos="96.76"/>
    <trip id="random116" depart="22237.00" from="nt5_nt6" to="nt12_nt16" type="griddistrandom" departPos="5.18" arrivalPos="142.75"/>
    <trip id="random117" depart="22238.00" from="nt1_nt2" to="nt13_nt9" type="griddistrandom" departPos="143.68" arrivalPos="130.19"/>
    <trip id="random118" depart="22265.00" from="nt9_nt5" to="nt11_nt7" type="griddistrandom" departPos="10.74" arrivalPos="66.84"/>
    <trip id="random119" depart="22273.00" from="nt2_nt3" to="nt15_nt14" type="griddistrandom" departPos="8.86" arrivalPos="120.82"/>
    <trip id="random120" depart="22291.00" from="np1_nt1" to="nt14_nt15" type="griddistrandom" departPos="47.60" arrivalPos="84.10"/>
    <trip id="random121" depart="22291.00" from="nt9_nt13" to="nt6_nt7" type="griddistrandom" departPos="177.23" arrivalPos="104.97"/>
    <trip id="random122" depart="22293.00" from="nt7_nt8" to="nt4_np4" type="griddistrandom" departPos="98.98" arrivalPos="38.47"/>
    <trip id="random123" depart="22294.00" from="nt11_nt15" to="nt14_nt13" type="griddistrandom" departPos="140.63" arrivalPos="132.68"/>
    <trip id="random124" depart="22301.00" from="nt3_nt4" to="nt5_nt1" type="griddistrandom" departPos="96.45" arrivalPos="44.38"/>
    <trip id="random125" depart="22306.00" from="nt11_nt10" to="nt3_nt2" type="griddistrandom" departPos="152.72" arrivalPos="67.05"/>
    <trip id="random126" depart="22330.00" from="np16_nt1" to="nt5_nt1" type="griddistrandom" departPos="56.17" arrivalPos="14.68"/>
    <trip id="random127" depart="22340.00" from="np13_nt13" to="nt8_np6" type="griddistrandom" departPos="32.29" arrivalPos="33.46"/>
    <trip id="random128" depart="22343.00" from="nt11_nt7" to="nt2_nt1" type="griddistrandom" departPos="105.41" arrivalPos="96.32"/>
    <trip id="random129" depart="22346.00" from="nt12_nt16" to="nt14_np11" type="griddistrandom" departPos="89.39" arrivalPos="31.76"/>
    <trip id="random130" depart="22349.00" from="nt13_nt9" to="nt8_nt7" type="griddistrandom" departPos="87.73" arrivalPos="180.64"/>
    <trip id="random131" depart="22349.00" from="nt6_nt5" to="nt12_nt11" type="griddistrandom" departPos="23.59" arrivalPos="131.99"/>
    <trip id="random132" depart="22352.00" from="np2_nt2" to="nt5_nt1" type="griddistrandom" departPos="55.77" arrivalPos="21.16"/>
    <trip id="random133" depart="22360.00" from="np7_nt12" to="nt1_nt2" type="griddistrandom" departPos="55.99" arrivalPos="175.22"/>
    <trip id="random134" depart="22363.00" from="nt11_nt7" to="nt9_np14" type="griddistrandom" departPos="107.81" arrivalPos="27.70"/>
    <trip id="random135" depart="22374.00" from="np1_nt1" to="nt3_np3" type="griddistrandom" departPos="2.60" arrivalPos="9.90"/>
    <trip id="random136" depart="22376.00" from="nt11_nt7" to="nt9_nt5" type="griddistrandom" departPos="54.34" arrivalPos="87.08"/>
    <trip id="random137" depart="22377.00" from="nt6_nt10" to="nt12_nt11" type="griddistrandom" departPos="105.66" arrivalPos="9.03"/>
    <trip id="random138" depart="22383.00" from="nt7_nt8" to="nt8_np6" type="griddistrandom" departPos="40.01" arrivalPos="61.43"/>
    <trip id="random139" depart="22383.00" from="nt14_nt15" to="nt11_nt7" type="griddistrandom" departPos="64.71" arrivalPos="155.98"/>
    <trip id="random140" depart="22390.00" from="nt12_nt8" to="nt3_np3" type="griddistrandom" departPos="101.38" arrivalPos="58.16"/>
    <trip id="random141" depart="22398.00" from="nt6_nt10" to="nt1_nt2" type="griddistrandom" departPos="129.03" arrivalPos="112.42"/>
    <trip id="random142" depart="22400.00" from="nt5_nt6" to="nt2_np2" type="griddistrandom" departPos="85.55" arrivalPos="29.07"/>
    <trip id="random143" depart="22403.00" from="nt13_nt9" to="nt7_nt8" type="griddistrandom" departPos="58.28" arrivalPos="148.45"/>
    <trip id="random144" depart="22405.00" from="nt3_nt2" to="nt16_nt12" type="griddistrandom" departPos="43.21" arrivalPos="70.86"/>
    <trip id="random145" depart="22408.00" from="nt15_nt16" to="nt9_nt10" type="griddistrandom" departPos="165.19" arrivalPos="136.59"/>
    <trip id="random146" depart="22410.00" from="nt2_nt6" to="nt7_nt8" type="griddistrandom" departPos="126.73" arrivalPos="106.16"/>
    <trip id="random147" depart="22410.00" from="nt6_nt10" to="nt5_nt1" type="griddistrandom" departPos="100.54" arrivalPos="22.18"/>
    <trip id="random148" depart="22414.00" from="nt16_nt12" to="nt13_np12" type="griddistrandom" departPos="110.87" arrivalPos="43.26"/>
    <trip id="random149" depart="22426.00" from="np13_nt13" to="nt3_np3" type="griddistrandom" departPos="12.84" arrivalPos="30.74"/>
    <trip id="random150" depart="22429.00" from="nt7_nt8" to="nt11_nt7" type="griddistrandom" departPos="173.76" arrivalPos="32.21"/>
    <trip id="random151" depart="22430.00" from="np11_nt14" to="nt6_nt5" type="griddistrandom" departPos="18.40" arrivalPos="130.96"/>
    <trip id="random152" depart="22435.00" from="nt7_nt6" to="nt1_np1" type="griddistrandom" departPos="149.76" arrivalPos="39.20"/>
    <trip id="random153" depart="22436.00" from="nt12_nt16" to="nt10_nt6" type="griddistrandom" departPos="154.47" arrivalPos="4.17"/>
    <trip id="random154" depart="22437.00" from="nt13_nt14" to="nt16_nt12" type="griddistrandom" departPos="159.55" arrivalPos="56.87"/>
    <trip id="random155" depart="22445.00" from="nt10_nt11" to="nt11_nt7" type="griddistrandom" departPos="18.44" arrivalPos="30.13"/>
    <trip id="random156" depart="22449.00" from="np3_nt3" to="nt14_np11" type="griddistrandom" departPos="5.79" arrivalPos="23.01"/>
    <trip id="random157" depart="22457.00" from="nt12_nt8" to="nt12_nt16" type="griddistrandom" departPos="110.11" arrivalPos="58.29"/>
    <trip id="random158" depart="22496.00" from="np11_nt14" to="nt10_nt9" type="griddistrandom" departPos="29.25" arrivalPos="59.40"/>
    <trip id="random159" depart="22500.00" from="nt12_nt8" to="nt15_np10" type="griddistrandom" departPos="67.29" arrivalPos="62.08"/>
    <trip id="random160" depart="22503.00" from="np1_nt1" to="nt13_np12" type="griddistrandom" departPos="48.59" arrivalPos="43.95"/>
    <trip id="random161" depart="22512.00" from="nt14_nt15" to="nt6_nt10" type="griddistrandom" departPos="71.47" arrivalPos="20.62"/>
    <trip id="random162" depart="22516.00" from="np13_nt13" to="nt1_np16" type="griddistrandom" departPos="27.60" arrivalPos="32.83"/>
    <trip id="random163" depart="22522.00" from="nt12_nt8" to="nt13_nt14" type="griddistrandom" departPos="158.80" arrivalPos="49.96"/>
    <trip id="random164" depart="22523.00" from="nt9_nt10" to="nt4_nt8" type="griddistrandom" departPos="45.72" arrivalPos="99.40"/>
    <trip id="random165" depart="22527.00" from="nt6_nt10" to="nt14_nt15" type="griddistrandom" departPos="72.89" arrivalPos="15.57"/>
    <trip id="random166" depart="22530.00" from="nt2_nt3" to="nt13_np13" type="griddistrandom" departPos="179.64" arrivalPos="25.31"/>
    <trip id="random167" depart="22541.00" from="nt9_nt5" to="nt6_nt5" type="griddistrandom" departPos="96.33" arrivalPos="78.65"/>
    <trip id="random168" depart="22550.00" from="nt8_nt12" to="nt1_np1" type="griddistrandom" departPos="0.18" arrivalPos="30.02"/>
    <trip id="random169" depart="22565.00" from="nt6_nt7" to="nt14_nt13" type="griddistrandom" departPos="180.42" arrivalPos="0.10"/>
    <trip id="random170" depart="22567.00" from="nt8_nt4" to="nt1_nt2" type="griddistrandom" departPos="107.14" arrivalPos="155.81"/>
    <trip id="random171" depart="22573.00" from="nt12_nt11" to="nt15_nt14" type="griddistrandom" departPos="117.34" arrivalPos="108.61"/>
    <trip id="random172" depart="22583.00" from="nt15_nt11" to="nt10_nt6" type="griddistrandom" departPos="132.46" arrivalPos="100.90"/>
    <trip id="random173" depart="22587.00" from="nt10_nt9" to="nt16_np9" type="griddistrandom" departPos="22.82" arrivalPos="10.47"/>
    <trip id="random174" depart="22599.00" from="nt16_nt12" to="nt14_nt10" type="griddistrandom" departPos="77.41" arrivalPos="109.39"/>
    <trip id="random175" depart="22604.00" from="nt9_nt10" to="nt15_np10" type="griddistrandom" departPos="126.60" arrivalPos="25.70"/>
    <trip id="random176" depart="22605.00" from="nt10_nt11" to="nt6_nt10" type="griddistrandom" departPos="84.02" arrivalPos="44.07"/>
    <trip id="random177" depart="22607.00" from="nt9_nt13" to="nt15_nt11" type="griddistrandom" departPos="82.40" arrivalPos="107.43"/>
    <trip id="random178" depart="22624.00" from="np11_nt14" to="nt5_np15" type="griddistrandom" departPos="48.48" arrivalPos="0.14"/>
    <trip id="random179" depart="22625.00" from="nt14_nt13" to="nt8_nt12" type="griddistrandom" departPos="124.85" arrivalPos="74.04"/>
    <trip id="random180" depart="22626.00" from="nt7_nt8" to="nt5_nt1" type="griddistrandom" departPos="141.51" arrivalPos="96.43"/>
    <trip id="random181" depart="22629.00" from="nt6_nt10" to="nt4_np5" type="griddistrandom" departPos="13.89" arrivalPos="2.32"/>
    <trip id="random182" depart="22630.00" from="nt6_nt7" to="nt4_nt3" type="griddistrandom" departPos="124.77" arrivalPos="65.52"/>
    <trip id="random183" depart="22634.00" from="nt6_nt5" to="nt7_nt11" type="griddistrandom" departPos="66.44" arrivalPos="31.75"/>
    <trip id="random184" depart="22643.00" from="nt5_nt9" to="nt5_np15" type="griddistrandom" departPos="1.51" arrivalPos="31.37"/>
    <trip id="random185" depart="22662.00" from="nt8_nt4" to="nt1_np1" type="griddistrandom" departPos="39.70" arrivalPos="1.28"/>
    <trip id="random186" depart="22664.00" from="nt10_nt14" to="nt8_nt4" type="griddistrandom" departPos="64.12" arrivalPos="16.12"/>
    <trip id="random187" depart="22667.00" from="nt2_nt1" to="nt14_nt15" type="griddistrandom" departPos="133.23" arrivalPos="43.48"/>
    <trip id="random188" depart="22668.00" from="nt14_nt15" to="nt15_nt16" type="griddistrandom" departPos="52.11" arrivalPos="167.88"/>
    <trip id="random189" depart="22675.00" from="nt4_nt3" to="nt13_np13" type="griddistrandom" departPos="36.39" arrivalPos="55.67"/>
    <trip id="random190" depart="22677.00" from="nt12_nt16" to="nt7_nt8" type="griddistrandom" departPos="101.98" arrivalPos="91.69"/>
    <trip id="random191" depart="22685.00" from="nt16_nt12" to="nt4_nt3" type="griddistrandom" departPos="101.37" arrivalPos="126.65"/>
    <trip id="random192" depart="22690.00" from="nt16_nt15" to="nt11_nt10" type="griddistrandom" departPos="23.80" arrivalPos="12.07"/>
    <trip id="random193" depart="22693.00" from="nt10_nt11" to="nt3_np3" type="griddistrandom" departPos="42.31" arrivalPos="33.79"/>
    <trip id="random194" depart="22696.00" from="nt6_nt10" to="nt13_np12" type="griddistrandom" departPos="121.49" arrivalPos="74.40"/>
    <trip id="random195" depart="22706.00" from="nt3_nt7" to="nt2_nt3" type="griddistrandom" departPos="45.32" arrivalPos="103.96"/>
    <trip id="random196" depart="22723.00" from="nt14_nt10" to="nt9_np14" type="griddistrandom" departPos="114.86" arrivalPos="63.94"/>
    <trip id="random197" depart="22730.00" from="np13_nt13" to="nt9_np14" type="griddistrandom" departPos="29.33" arrivalPos="67.47"/>
    <trip id="random198" depart="22738.00" from="nt10_nt14" to="nt4_nt8" type="griddistrandom" departPos="83.61" arrivalPos="64.78"/>
    <trip id="random199" depart="22749.00" from="nt5_nt6" to="nt8_np6" type="griddistrandom" departPos="41.68" arrivalPos="20.84"/>
    <trip id="random200" depart="22758.00" from="nt12_nt8" to="nt1_np1" type="griddistrandom" departPos="0.92" arrivalPos="12.57"/>
    <trip id="random201" depart="22764.00" from="np15_nt5" to="nt3_np3" type="griddistrandom" departPos="1.72" arrivalPos="47.64"/>
    <trip id="random202" depart="22774.00" from="nt9_nt13" to="nt16_nt15" type="griddistrandom" departPos="13.34" arrivalPos="46.40"/>
    <trip id="random203" depart="22794.00" from="np4_nt4" to="nt14_nt15" type="griddistrandom" departPos="40.44" arrivalPos="17.95"/>
    <trip id="random204" depart="22804.00" from="nt14_nt13" to="nt6_nt7" type="griddistrandom" departPos="109.97" arrivalPos="116.24"/>
    <trip id="random205" depart="22805.00" from="nt11_nt12" to="nt14_np11" type="griddistrandom" departPos="20.02" arrivalPos="17.88"/>
    <trip id="random206" depart="22819.00" from="nt11_nt12" to="nt10_nt9" type="griddistrandom" departPos="61.91" arrivalPos="147.39"/>
    <trip id="random207" depart="22820.00" from="nt8_nt7" to="nt6_nt2" type="griddistrandom" departPos="114.99" arrivalPos="136.93"/>
    <trip id="random208" depart="22820.00" from="nt2_nt3" to="nt3_nt2" type="griddistrandom" departPos="15.88" arrivalPos="11.26"/>
    <trip id="random209" depart="22826.00" from="np12_nt13" to="nt15_np10" type="griddistrandom" departPos="63.58" arrivalPos="4.88"/>
    <trip id="random210" depart="22826.00" from="np2_nt2" to="nt8_nt4" type="griddistrandom" departPos="28.55" arrivalPos="54.02"/>
    <trip id="random211" depart="22828.00" from="nt2_nt3" to="nt11_nt10" type="griddistrandom" departPos="125.76" arrivalPos="103.80"/>
    <trip id="random212" depart="22829.00" from="nt10_nt6" to="nt16_np8" type="griddistrandom" departPos="17.17" arrivalPos="56.40"/>
    <trip id="random213" depart="22832.00" from="np8_nt16" to="nt3_nt4" type="griddistrandom" departPos="49.48" arrivalPos="1.97"/>
    <trip id="random214" depart="22841.00" from="nt12_nt11" to="nt6_nt5" type="griddistrandom" departPos="163.32" arrivalPos="114.93"/>
    <trip id="random215" depart="22845.00" from="nt11_nt12" to="nt9_np14" type="griddistrandom" departPos="145.31" arrivalPos="30.79"/>
    <trip id="random216" depart="22849.00" from="nt11_nt12" to="nt13_np12" type="griddistrandom" departPos="19.06" arrivalPos="44.64"/>
    <trip id="random217" depart="22850.00" from="np14_nt9" to="nt6_nt5" type="griddistrandom" departPos="13.13" arrivalPos="106.39"/>
    <trip id="random218" depart="22853.00" from="nt2_nt3" to="nt14_np11" type="griddistrandom" departPos="78.14" arrivalPos="54.35"/>