<?xml version="1.0" encoding="UTF-8"?>

<!-- generated on 2024-02-16 02:33:07.938834 by randomTrips.py UNKNOWN
<configuration>
    <net-file value="grid4x4.net.xml"/>
    <weights-prefix value="/home/red/sumo-scenarios/grid4x4/pse/pse"/>
    <output-trip-file value="/home/red/sumo-scenarios/grid4x4/pse/pse.rou.xml"/>
    <prefix value="pse1"/>
    <trip-attributes value="type=&quot;griddist1&quot;"/>
    <random-departpos value="True"/>
    <random-arrivalpos value="True"/>
    <validate value="True"/>
    <period value="4.0"/>
    <random-depart value="True"/>
</configuration>
-->

<!-- generated on 2024-02-16 02:33:07 by Eclipse SUMO duarouter Version 1.19.0
<configuration xmlns:xsi="http://www.w3.org/2001/XMLSchema-instance" xsi:noNamespaceSchemaLocation="http://sumo.dlr.de/xsd/duarouterConfiguration.xsd">

    <input>
        <net-file value="grid4x4.net.xml"/>
        <route-files value="/home/red/sumo-scenarios/grid4x4/pse/pse.rou.xml"/>
    </input>

    <output>
        <output-file value="/home/red/sumo-scenarios/grid4x4/pse/pse.rou.xml.tmp"/>
        <alternatives-output value="NUL"/>
        <write-trips value="true"/>
    </output>

    <time>
        <begin value="0"/>
        <end value="3600"/>
    </time>

    <report>
        <no-warnings value="true"/>
        <ignore-errors value="true"/>
        <no-step-log value="true"/>
    </report>

</configuration>
-->

<routes xmlns:xsi="http://www.w3.org/2001/XMLSchema-instance" xsi:noNamespaceSchemaLocation="http://sumo.dlr.de/xsd/routes_file.xsd">
    <trip id="pse10" type="griddist1" depart="1.00" departPos="31.62" arrivalPos="53.94" from="np12_nt13" to="nt4_np4"/>
    <trip id="pse11" type="griddist1" depart="2.00" departPos="3.91" arrivalPos="61.49" from="np9_nt16" to="nt3_np3"/>
    <trip id="pse12" type="griddist1" depart="6.00" departPos="71.80" arrivalPos="2.60" from="np12_nt13" to="nt1_np1"/>
    <trip id="pse13" type="griddist1" depart="8.00" departPos="62.94" arrivalPos="40.14" from="np10_nt15" to="nt1_np1"/>
    <trip id="pse14" type="griddist1" depart="13.00" departPos="8.58" arrivalPos="61.23" from="np12_nt13" to="nt2_np2"/>
    <trip id="pse15" type="griddist1" depart="14.00" departPos="27.67" arrivalPos="39.14" from="np9_nt16" to="nt2_np2"/>
    <trip id="pse16" type="griddist1" depart="22.00" departPos="144.36" arrivalPos="10.58" from="nt8_nt7" to="nt3_np3"/>
    <trip id="pse17" type="griddist1" depart="24.00" departPos="62.98" arrivalPos="37.20" from="np14_nt9" to="nt3_np3"/>
    <trip id="pse18" type="griddist1" depart="26.00" departPos="168.71" arrivalPos="12.81" from="nt7_nt11" to="nt2_np2"/>
    <trip id="pse19" type="griddist1" depart="29.00" departPos="43.52" arrivalPos="45.04" from="nt11_nt7" to="nt4_np4"/>
    <trip id="pse110" type="griddist1" depart="32.00" departPos="54.61" arrivalPos="51.44" from="np13_nt13" to="nt3_np3"/>
    <trip id="pse111" type="griddist1" depart="38.00" departPos="98.88" arrivalPos="42.73" from="nt11_nt10" to="nt1_np1"/>
    <trip id="pse112" type="griddist1" depart="39.00" departPos="0.95" arrivalPos="27.14" from="np10_nt15" to="nt3_np3"/>
    <trip id="pse113" type="griddist1" depart="47.00" departPos="27.16" arrivalPos="57.60" from="np9_nt16" to="nt2_np2"/>
    <trip id="pse114" type="griddist1" depart="60.00" departPos="13.21" arrivalPos="33.70" from="np9_nt16" to="nt1_np1"/>
    <trip id="pse115" type="griddist1" depart="79.00" departPos="164.80" arrivalPos="50.04" from="nt14_nt10" to="nt3_np3"/>
    <trip id="pse116" type="griddist1" depart="80.00" departPos="44.44" arrivalPos="20.82" from="np9_nt16" to="nt4_np4"/>
    <trip id="pse117" type="griddist1" depart="86.00" departPos="20.92" arrivalPos="29.12" from="np12_nt13" to="nt4_np4"/>
    <trip id="pse118" type="griddist1" depart="96.00" departPos="124.02" arrivalPos="21.73" from="nt2_nt1" to="nt3_np3"/>
    <trip id="pse119" type="griddist1" depart="100.00" departPos="36.57" arrivalPos="22.92" from="np9_nt16" to="nt2_np2"/>
    <trip id="pse120" type="griddist1" depart="101.00" departPos="44.71" arrivalPos="56.85" from="np12_nt13" to="nt2_np2"/>
    <trip id="pse121" type="griddist1" depart="102.00" departPos="35.46" arrivalPos="15.59" from="nt10_nt9" to="nt3_np3"/>
    <trip id="pse122" type="griddist1" depart="108.00" departPos="18.02" arrivalPos="30.76" from="np7_nt12" to="nt3_np3"/>
    <trip id="pse123" type="griddist1" depart="110.00" departPos="3.09" arrivalPos="19.01" from="nt16_nt12" to="nt2_np2"/>
    <trip id="pse124" type="griddist1" depart="111.00" departPos="49.80" arrivalPos="23.84" from="np7_nt12" to="nt1_np1"/>
    <trip id="pse125" type="griddist1" depart="113.00" departPos="184.97" arrivalPos="35.56" from="nt10_nt9" to="nt2_np2"/>
    <trip id="pse126" type="griddist1" depart="118.00" departPos="19.81" arrivalPos="14.89" from="np2_nt2" to="nt2_np2"/>
    <trip id="pse127" type="griddist1" depart="122.00" departPos="137.88" arrivalPos="61.43" from="nt16_nt15" to="nt2_np2"/>
    <trip id="pse128" type="griddist1" depart="128.00" departPos="137.09" arrivalPos="17.86" from="nt15_nt14" to="nt1_np1"/>
    <trip id="pse129" type="griddist1" depart="130.00" departPos="106.94" arrivalPos="63.34" from="nt11_nt15" to="nt4_np4"/>
    <trip id="pse130" type="griddist1" depart="131.00" departPos="64.67" arrivalPos="19.53" from="nt5_nt1" to="nt2_np2"/>
    <trip id="pse131" type="griddist1" depart="147.00" departPos="8.45" arrivalPos="3.52" from="nt15_nt16" to="nt1_np1"/>
    <trip id="pse132" type="griddist1" depart="156.00" departPos="47.84" arrivalPos="48.63" from="np12_nt13" to="nt4_np4"/>
    <trip id="pse133" type="griddist1" depart="158.00" departPos="21.33" arrivalPos="30.92" from="np11_nt14" to="nt1_np1"/>
    <trip id="pse134" type="griddist1" depart="162.00" departPos="16.31" arrivalPos="55.67" from="np1_nt1" to="nt4_np4"/>
    <trip id="pse135" type="griddist1" depart="163.00" departPos="36.88" arrivalPos="37.28" from="np11_nt14" to="nt1_np1"/>
    <trip id="pse136" type="griddist1" depart="171.00" departPos="145.36" arrivalPos="61.31" from="nt15_nt11" to="nt1_np1"/>
    <trip id="pse137" type="griddist1" depart="177.00" departPos="41.86" arrivalPos="26.88" from="np10_nt15" to="nt1_np1"/>
    <trip id="pse138" type="griddist1" depart="180.00" departPos="139.00" arrivalPos="24.57" from="nt11_nt7" to="nt3_np3"/>
    <trip id="pse139" type="griddist1" depart="181.00" departPos="105.46" arrivalPos="27.70" from="nt7_nt11" to="nt2_np2"/>
    <trip id="pse140" type="griddist1" depart="187.00" departPos="178.20" arrivalPos="6.41" from="nt11_nt10" to="nt1_np1"/>
    <trip id="pse141" type="griddist1" depart="189.00" departPos="49.12" arrivalPos="5.24" from="nt2_nt3" to="nt3_np3"/>
    <trip id="pse142" type="griddist1" depart="192.00" departPos="11.74" arrivalPos="26.39" from="np12_nt13" to="nt3_np3"/>
    <trip id="pse143" type="griddist1" depart="205.00" departPos="5.85" arrivalPos="18.61" from="nt15_nt11" to="nt2_np2"/>
    <trip id="pse144" type="griddist1" depart="205.00" departPos="5.34" arrivalPos="15.08" from="np12_nt13" to="nt4_np4"/>
    <trip id="pse145" type="griddist1" depart="205.00" departPos="44.23" arrivalPos="51.93" from="np12_nt13" to="nt4_np4"/>
    <trip id="pse146" type="griddist1" depart="207.00" departPos="16.86" arrivalPos="9.62" from="np11_nt14" to="nt1_np1"/>
    <trip id="pse147" type="griddist1" depart="208.00" departPos="4.47" arrivalPos="51.20" from="np12_nt13" to="nt1_np1"/>
    <trip id="pse148" type="griddist1" depart="221.00" departPos="165.08" arrivalPos="28.37" from="nt11_nt7" to="nt4_np4"/>
    <trip id="pse149" type="griddist1" depart="229.00" departPos="30.19" arrivalPos="17.59" from="np9_nt16" to="nt2_np2"/>
    <trip id="pse150" type="griddist1" depart="232.00" departPos="107.17" arrivalPos="57.46" from="nt10_nt14" to="nt2_np2"/>
    <trip id="pse151" type="griddist1" depart="234.00" departPos="4.80" arrivalPos="14.79" from="nt1_nt2" to="nt3_np3"/>
    <trip id="pse152" type="griddist1" depart="237.00" departPos="108.97" arrivalPos="1.34" from="nt14_nt15" to="nt4_np4"/>
    <trip id="pse153" type="griddist1" depart="239.00" departPos="106.95" arrivalPos="49.30" from="nt2_nt3" to="nt4_np4"/>
    <trip id="pse154" type="griddist1" depart="240.00" departPos="33.17" arrivalPos="17.97" from="np11_nt14" to="nt3_np3"/>
    <trip id="pse155" type="griddist1" depart="241.00" departPos="145.91" arrivalPos="62.60" from="nt9_nt5" to="nt2_np2"/>
    <trip id="pse156" type="griddist1" depart="248.00" departPos="24.08" arrivalPos="6.76" from="np9_nt16" to="nt2_np2"/>
    <trip id="pse157" type="griddist1" depart="249.00" departPos="37.16" arrivalPos="42.80" from="np11_nt14" to="nt2_np2"/>
    <trip id="pse158" type="griddist1" depart="255.00" departPos="2.75" arrivalPos="5.69" from="np7_nt12" to="nt4_np4"/>
    <trip id="pse159" type="griddist1" depart="260.00" departPos="57.94" arrivalPos="55.87" from="np12_nt13" to="nt1_np1"/>
    <trip id="pse160" type="griddist1" depart="262.00" departPos="155.79" arrivalPos="29.84" from="nt4_nt8" to="nt1_np1"/>
    <trip id="pse161" type="griddist1" depart="263.00" departPos="46.70" arrivalPos="32.20" from="np10_nt15" to="nt3_np3"/>
    <trip id="pse162" type="griddist1" depart="271.00" departPos="20.03" arrivalPos="8.46" from="np9_nt16" to="nt1_np1"/>
    <trip id="pse163" type="griddist1" depart="276.00" departPos="36.35" arrivalPos="1.86" from="np12_nt13" to="nt4_np4"/>
    <trip id="pse164" type="griddist1" depart="278.00" departPos="131.74" arrivalPos="20.07" from="nt13_nt14" to="nt4_np4"/>
    <trip id="pse165" type="griddist1" depart="280.00" departPos="16.85" arrivalPos="54.35" from="np10_nt15" to="nt2_np2"/>
    <trip id="pse166" type="griddist1" depart="281.00" departPos="48.58" arrivalPos="9.95" from="np11_nt14" to="nt4_np4"/>
    <trip id="pse167" type="griddist1" depart="283.00" departPos="130.92" arrivalPos="26.84" from="nt7_nt8" to="nt2_np2"/>
    <trip id="pse168" type="griddist1" depart="284.00" departPos="34.26" arrivalPos="9.34" from="np9_nt16" to="nt2_np2"/>
    <trip id="pse169" type="griddist1" depart="284.00" departPos="55.97" arrivalPos="8.82" from="np11_nt14" to="nt3_np3"/>
    <trip id="pse170" type="griddist1" depart="286.00" departPos="64.08" arrivalPos="21.96" from="np10_nt15" to="nt4_np4"/>
    <trip id="pse171" type="griddist1" depart="290.00" departPos="0.48" arrivalPos="46.90" from="nt3_nt2" to="nt2_np2"/>
    <trip id="pse172" type="griddist1" depart="290.00" departPos="118.26" arrivalPos="55.90" from="nt5_nt1" to="nt3_np3"/>
    <trip id="pse173" type="griddist1" depart="292.00" departPos="24.93" arrivalPos="49.28" from="np9_nt16" to="nt2_np2"/>
    <trip id="pse174" type="griddist1" depart="297.00" departPos="56.18" arrivalPos="63.36" from="np4_nt4" to="nt4_np4"/>
    <trip id="pse175" type="griddist1" depart="298.00" departPos="64.20" arrivalPos="26.54" from="np12_nt13" to="nt2_np2"/>
    <trip id="pse176" type="griddist1" depart="300.00" departPos="61.93" arrivalPos="24.63" from="np14_nt9" to="nt2_np2"/>
    <trip id="pse177" type="griddist1" depart="308.00" departPos="116.84" arrivalPos="9.83" from="nt9_nt13" to="nt4_np4"/>
    <trip id="pse178" type="griddist1" depart="308.00" departPos="179.17" arrivalPos="21.45" from="nt8_nt7" to="nt1_np1"/>
    <trip id="pse179" type="griddist1" depart="317.00" departPos="7.48" arrivalPos="58.81" from="np11_nt14" to="nt4_np4"/>
    <trip id="pse180" type="griddist1" depart="322.00" departPos="65.32" arrivalPos="62.66" from="np10_nt15" to="nt1_np1"/>
    <trip id="pse181" type="griddist1" depart="322.00" departPos="19.88" arrivalPos="40.26" from="np10_nt15" to="nt4_np4"/>
    <trip id="pse182" type="griddist1" depart="326.00" departPos="24.64" arrivalPos="43.56" from="np6_nt8" to="nt1_np1"/>
    <trip id="pse183" type="griddist1" depart="328.00" departPos="112.32" arrivalPos="57.33" from="nt10_nt14" to="nt4_np4"/>
    <trip id="pse184" type="griddist1" depart="330.00" departPos="46.31" arrivalPos="15.17" from="np9_nt16" to="nt3_np3"/>
    <trip id="pse185" type="griddist1" depart="335.00" departPos="40.77" arrivalPos="5.84" from="nt15_nt11" to="nt2_np2"/>
    <trip id="pse186" type="griddist1" depart="343.00" departPos="130.64" arrivalPos="6.49" from="nt9_nt10" to="nt4_np4"/>
    <trip id="pse187" type="griddist1" depart="347.00" departPos="2.17" arrivalPos="20.95" from="np11_nt14" to="nt2_np2"/>
    <trip id="pse188" type="griddist1" depart="350.00" departPos="32.30" arrivalPos="15.78" from="np10_nt15" to="nt2_np2"/>
    <trip id="pse189" type="griddist1" depart="356.00" departPos="13.50" arrivalPos="11.31" from="np8_nt16" to="nt3_np3"/>
    <trip id="pse190" type="griddist1" depart="372.00" departPos="126.79" arrivalPos="32.15" from="nt12_nt11" to="nt2_np2"/>
    <trip id="pse191" type="griddist1" depart="378.00" departPos="114.31" arrivalPos="29.69" from="nt11_nt15" to="nt1_np1"/>
    <trip id="pse192" type="griddist1" depart="379.00" departPos="86.35" arrivalPos="18.58" from="nt14_nt13" to="nt4_np4"/>
    <trip id="pse193" type="griddist1" depart="382.00" departPos="169.39" arrivalPos="63.80" from="nt10_nt6" to="nt1_np1"/>
    <trip id="pse194" type="griddist1" depart="382.00" departPos="51.77" arrivalPos="29.51" from="np12_nt13" to="nt4_np4"/>
    <trip id="pse195" type="griddist1" depart="383.00" departPos="57.86" arrivalPos="6.89" from="np13_nt13" to="nt4_np4"/>
    <trip id="pse196" type="griddist1" depart="386.00" departPos="22.19" arrivalPos="45.17" from="np5_nt4" to="nt2_np2"/>
    <trip id="pse197" type="griddist1" depart="396.00" departPos="29.69" arrivalPos="0.52" from="np10_nt15" to="nt4_np4"/>
    <trip id="pse198" type="griddist1" depart="397.00" departPos="174.47" arrivalPos="58.83" from="nt6_nt10" to="nt4_np4"/>
    <trip id="pse199" type="griddist1" depart="401.00" departPos="161.81" arrivalPos="50.11" from="nt1_nt5" to="nt4_np4"/>
    <trip id="pse1100" type="griddist1" depart="403.00" departPos="16.43" arrivalPos="12.28" from="np12_nt13" to="nt4_np4"/>
    <trip id="pse1101" type="griddist1" depart="409.00" departPos="57.56" arrivalPos="43.98" from="np12_nt13" to="nt4_np4"/>
    <trip id="pse1102" type="griddist1" depart="413.00" departPos="47.06" arrivalPos="2.55" from="np11_nt14" to="nt1_np1"/>
    <trip id="pse1103" type="griddist1" depart="418.00" departPos="67.72" arrivalPos="8.49" from="nt3_nt2" to="nt1_np1"/>
    <trip id="pse1104" type="griddist1" depart="419.00" departPos="74.46" arrivalPos="12.97" from="nt7_nt11" to="nt2_np2"/>
    <trip id="pse1105" type="griddist1" depart="421.00" departPos="67.90" arrivalPos="32.42" from="nt3_nt2" to="nt4_np4"/>
    <trip id="pse1106" type="griddist1" depart="424.00" departPos="68.55" arrivalPos="60.99" from="np12_nt13" to="nt1_np1"/>
    <trip id="pse1107" type="griddist1" depart="435.00" departPos="161.55" arrivalPos="51.95" from="nt8_nt7" to="nt2_np2"/>
    <trip id="pse1108" type="griddist1" depart="436.00" departPos="56.56" arrivalPos="14.57" from="np9_nt16" to="nt1_np1"/>
    <trip id="pse1109" type="griddist1" depart="438.00" departPos="73.76" arrivalPos="54.64" from="nt14_nt15" to="nt3_np3"/>
    <trip id="pse1110" type="griddist1" depart="442.00" departPos="73.23" arrivalPos="17.08" from="nt10_nt9" to="nt1_np1"/>
    <trip id="pse1111" type="griddist1" depart="444.00" departPos="56.18" arrivalPos="16.94" from="np11_nt14" to="nt2_np2"/>
    <trip id="pse1112" type="griddist1" depart="447.00" departPos="27.86" arrivalPos="43.59" from="np5_nt4" to="nt3_np3"/>
    <trip id="pse1113" type="griddist1" depart="449.00" departPos="70.74" arrivalPos="21.19" from="np9_nt16" to="nt3_np3"/>
    <trip id="pse1114" type="griddist1" depart="456.00" departPos="113.86" arrivalPos="29.99" from="nt12_nt16" to="nt3_np3"/>
    <trip id="pse1115" type="griddist1" depart="456.00" departPos="21.66" arrivalPos="2.93" from="nt15_nt16" to="nt3_np3"/>
    <trip id="pse1116" type="griddist1" depart="458.00" departPos="8.71" arrivalPos="15.17" from="np10_nt15" to="nt4_np4"/>
    <trip id="pse1117" type="griddist1" depart="458.00" departPos="66.49" arrivalPos="61.33" from="nt10_nt14" to="nt2_np2"/>
    <trip id="pse1118" type="griddist1" depart="469.00" departPos="109.01" arrivalPos="46.94" from="nt15_nt14" to="nt3_np3"/>
    <trip id="pse1119" type="griddist1" depart="472.00" departPos="154.73" arrivalPos="39.77" from="nt6_nt5" to="nt3_np3"/>
    <trip id="pse1120" type="griddist1" depart="472.00" departPos="128.12" arrivalPos="14.04" from="nt7_nt8" to="nt2_np2"/>
    <trip id="pse1121" type="griddist1" depart="473.00" departPos="27.20" arrivalPos="63.37" from="np9_nt16" to="nt1_np1"/>
    <trip id="pse1122" type="griddist1" depart="491.00" departPos="41.66" arrivalPos="3.91" from="np3_nt3" to="nt4_np4"/>
    <trip id="pse1123" type="griddist1" depart="495.00" departPos="71.18" arrivalPos="53.24" from="np12_nt13" to="nt4_np4"/>
    <trip id="pse1124" type="griddist1" depart="497.00" departPos="47.96" arrivalPos="62.73" from="np10_nt15" to="nt1_np1"/>
    <trip id="pse1125" type="griddist1" depart="510.00" departPos="74.16" arrivalPos="50.84" from="np10_nt15" to="nt2_np2"/>
    <trip id="pse1126" type="griddist1" depart="511.00" departPos="41.57" arrivalPos="37.88" from="np12_nt13" to="nt4_np4"/>
    <trip id="pse1127" type="griddist1" depart="515.00" departPos="143.72" arrivalPos="50.95" from="nt4_nt3" to="nt1_np1"/>
    <trip id="pse1128" type="griddist1" depart="521.00" departPos="176.34" arrivalPos="63.79" from="nt11_nt7" to="nt2_np2"/>
    <trip id="pse1129" type="griddist1" depart="522.00" departPos="19.70" arrivalPos="55.97" from="nt10_nt6" to="nt4_np4"/>
    <trip id="pse1130" type="griddist1" depart="522.00" departPos="59.13" arrivalPos="38.04" from="np11_nt14" to="nt2_np2"/>
    <trip id="pse1131" type="griddist1" depart="525.00" departPos="9.51" arrivalPos="27.19" from="np10_nt15" to="nt2_np2"/>
    <trip id="pse1132" type="griddist1" depart="535.00" departPos="33.62" arrivalPos="23.39" from="np11_nt14" to="nt1_np1"/>
    <trip id="pse1133" type="griddist1" depart="536.00" departPos="39.70" arrivalPos="39.74" from="nt11_nt7" to="nt2_np2"/>
    <trip id="pse1134" type="griddist1" depart="541.00" departPos="122.29" arrivalPos="19.49" from="nt16_nt15" to="nt4_np4"/>
    <trip id="pse1135" type="griddist1" depart="542.00" departPos="178.95" arrivalPos="54.74" from="nt13_nt9" to="nt1_np1"/>
    <trip id="pse1136" type="griddist1" depart="546.00" departPos="53.43" arrivalPos="28.65" from="np9_nt16" to="nt1_np1"/>
    <trip id="pse1137" type="griddist1" depart="550.00" departPos="27.53" arrivalPos="8.15" from="nt6_nt7" to="nt2_np2"/>
    <trip id="pse1138" type="griddist1" depart="555.00" departPos="127.62" arrivalPos="24.61" from="nt12_nt8" to="nt3_np3"/>
    <trip id="pse1139" type="griddist1" depart="566.00" departPos="90.59" arrivalPos="27.79" from="nt11_nt7" to="nt2_np2"/>
    <trip id="pse1140" type="griddist1" depart="566.00" departPos="121.51" arrivalPos="56.70" from="nt3_nt4" to="nt1_np1"/>
    <trip id="pse1141" type="griddist1" depart="571.00" departPos="79.82" arrivalPos="57.37" from="nt10_nt9" to="nt4_np4"/>
    <trip id="pse1142" type="griddist1" depart="571.00" departPos="29.90" arrivalPos="47.13" from="np8_nt16" to="nt4_np4"/>
    <trip id="pse1143" type="griddist1" depart="574.00" departPos="17.28" arrivalPos="61.60" from="np14_nt9" to="nt2_np2"/>
    <trip id="pse1144" type="griddist1" depart="585.00" departPos="16.35" arrivalPos="5.51" from="nt15_nt11" to="nt2_np2"/>
    <trip id="pse1145" type="griddist1" depart="603.00" departPos="27.95" arrivalPos="8.41" from="np9_nt16" to="nt3_np3"/>
    <trip id="pse1146" type="griddist1" depart="604.00" departPos="42.13" arrivalPos="43.28" from="np10_nt15" to="nt4_np4"/>
    <trip id="pse1147" type="griddist1" depart="606.00" departPos="70.58" arrivalPos="27.32" from="np8_nt16" to="nt4_np4"/>
    <trip id="pse1148" type="griddist1" depart="610.00" departPos="51.54" arrivalPos="20.18" from="nt7_nt3" to="nt1_np1"/>
    <trip id="pse1149" type="griddist1" depart="617.00" departPos="11.60" arrivalPos="31.15" from="np11_nt14" to="nt3_np3"/>
    <trip id="pse1150" type="griddist1" depart="625.00" departPos="103.24" arrivalPos="7.42" from="nt5_nt6" to="nt2_np2"/>
    <trip id="pse1151" type="griddist1" depart="626.00" departPos="32.18" arrivalPos="36.24" from="np12_nt13" to="nt1_np1"/>
    <trip id="pse1152" type="griddist1" depart="626.00" departPos="125.28" arrivalPos="35.97" from="nt2_nt3" to="nt3_np3"/>
    <trip id="pse1153" type="griddist1" depart="633.00" departPos="128.71" arrivalPos="1.87" from="nt12_nt11" to="nt3_np3"/>
    <trip id="pse1154" type="griddist1" depart="634.00" departPos="69.12" arrivalPos="22.68" from="np12_nt13" to="nt4_np4"/>
    <trip id="pse1155" type="griddist1" depart="636.00" departPos="49.30" arrivalPos="4.50" from="np11_nt14" to="nt1_np1"/>
    <trip id="pse1156" type="griddist1" depart="636.00" departPos="16.44" arrivalPos="34.27" from="nt1_nt5" to="nt4_np4"/>
    <trip id="pse1157" type="griddist1" depart="644.00" departPos="10.17" arrivalPos="20.13" from="np4_nt4" to="nt2_np2"/>
    <trip id="pse1158" type="griddist1" depart="646.00" departPos="40.42" arrivalPos="57.06" from="np15_nt5" to="nt4_np4"/>
    <trip id="pse1159" type="griddist1" depart="647.00" departPos="3.73" arrivalPos="5.27" from="np11_nt14" to="nt4_np4"/>
    <trip id="pse1160" type="griddist1" depart="651.00" departPos="45.53" arrivalPos="26.76" from="np9_nt16" to="nt2_np2"/>
    <trip id="pse1161" type="griddist1" depart="652.00" departPos="25.89" arrivalPos="7.16" from="np12_nt13" to="nt3_np3"/>
    <trip id="pse1162" type="griddist1" depart="653.00" departPos="97.80" arrivalPos="19.92" from="nt14_nt15" to="nt3_np3"/>
    <trip id="pse1163" type="griddist1" depart="655.00" departPos="4.11" arrivalPos="13.21" from="np12_nt13" to="nt4_np4"/>
    <trip id="pse1164" type="griddist1" depart="661.00" departPos="136.94" arrivalPos="18.70" from="nt8_nt12" to="nt4_np4"/>
    <trip id="pse1165" type="griddist1" depart="661.00" departPos="32.30" arrivalPos="8.35" from="np11_nt14" to="nt2_np2"/>
    <trip id="pse1166" type="griddist1" depart="665.00" departPos="100.12" arrivalPos="43.16" from="nt10_nt14" to="nt1_np1"/>
    <trip id="pse1167" type="griddist1" depart="666.00" departPos="47.94" arrivalPos="28.18" from="np2_nt2" to="nt2_np2"/>
    <trip id="pse1168" type="griddist1" depart="669.00" departPos="23.48" arrivalPos="27.73" from="np9_nt16" to="nt1_np1"/>
    <trip id="pse1169" type="griddist1" depart="674.00" departPos="21.71" arrivalPos="26.17" from="np7_nt12" to="nt3_np3"/>
    <trip id="pse1170" type="griddist1" depart="676.00" departPos="175.88" arrivalPos="29.72" from="nt8_nt7" to="nt1_np1"/>
    <trip id="pse1171" type="griddist1" depart="676.00" departPos="78.26" arrivalPos="6.84" from="nt15_nt11" to="nt2_np2"/>
    <trip id="pse1172" type="griddist1" depart="681.00" departPos="5.90" arrivalPos="56.24" from="np9_nt16" to="nt2_np2"/>
    <trip id="pse1173" type="griddist1" depart="695.00" departPos="139.62" arrivalPos="4.93" from="nt1_nt5" to="nt1_np1"/>
    <trip id="pse1174" type="griddist1" depart="700.00" departPos="35.99" arrivalPos="50.14" from="nt13_nt14" to="nt3_np3"/>
    <trip id="pse1175" type="griddist1" depart="712.00" departPos="41.70" arrivalPos="9.54" from="np2_nt2" to="nt4_np4"/>
    <trip id="pse1176" type="griddist1" depart="720.00" departPos="13.01" arrivalPos="9.88" from="np11_nt14" to="nt2_np2"/>
    <trip id="pse1177" type="griddist1" depart="725.00" departPos="176.56" arrivalPos="40.57" from="nt2_nt1" to="nt1_np1"/>
    <trip id="pse1178" type="griddist1" depart="731.00" departPos="43.46" arrivalPos="44.00" from="np9_nt16" to="nt3_np3"/>
    <trip id="pse1179" type="griddist1" depart="731.00" departPos="183.10" arrivalPos="20.88" from="nt6_nt5" to="nt3_np3"/>
    <trip id="pse1180" type="griddist1" depart="734.00" departPos="81.62" arrivalPos="30.29" from="nt9_nt10" to="nt2_np2"/>
    <trip id="pse1181" type="griddist1" depart="744.00" departPos="109.77" arrivalPos="22.74" from="nt13_nt14" to="nt4_np4"/>
    <trip id="pse1182" type="griddist1" depart="751.00" departPos="2.82" arrivalPos="23.82" from="np10_nt15" to="nt2_np2"/>
    <trip id="pse1183" type="griddist1" depart="761.00" departPos="73.30" arrivalPos="5.83" from="np12_nt13" to="nt3_np3"/>
    <trip id="pse1184" type="griddist1" depart="777.00" departPos="104.00" arrivalPos="61.64" from="nt11_nt7" to="nt2_np2"/>
    <trip id="pse1185" type="griddist1" depart="778.00" departPos="168.72" arrivalPos="36.93" from="nt1_nt2" to="nt1_np1"/>
    <trip id="pse1186" type="griddist1" depart="779.00" departPos="37.60" arrivalPos="61.87" from="np11_nt14" to="nt3_np3"/>
    <trip id="pse1187" type="griddist1" depart="779.00" departPos="62.80" arrivalPos="63.46" from="np9_nt16" to="nt4_np4"/>
    <trip id="pse1188" type="griddist1" depart="784.00" departPos="2.94" arrivalPos="45.71" from="np10_nt15" to="nt3_np3"/>
    <trip id="pse1189" type="griddist1" depart="785.00" departPos="109.28" arrivalPos="23.51" from="nt9_nt5" to="nt3_np3"/>
    <trip id="pse1190" type="griddist1" depart="787.00" departPos="138.78" arrivalPos="43.86" from="nt7_nt3" to="nt2_np2"/>
    <trip id="pse1191" type="griddist1" depart="791.00" departPos="25.10" arrivalPos="21.30" from="np10_nt15" to="nt3_np3"/>
    <trip id="pse1192" type="griddist1" depart="796.00" departPos="46.77" arrivalPos="55.01" from="nt10_nt9" to="nt2_np2"/>
    <trip id="pse1193" type="griddist1" depart="807.00" departPos="27.91" arrivalPos="5.27" from="nt8_nt7" to="nt3_np3"/>
    <trip id="pse1194" type="griddist1" depart="814.00" departPos="57.58" arrivalPos="42.38" from="nt14_nt13" to="nt4_np4"/>
    <trip id="pse1195" type="griddist1" depart="814.00" departPos="131.56" arrivalPos="5.47" from="nt14_nt13" to="nt1_np1"/>
    <trip id="pse1196" type="griddist1" depart="815.00" departPos="60.97" arrivalPos="8.26" from="nt10_nt9" to="nt3_np3"/>
    <trip id="pse1197" type="griddist1" depart="817.00" departPos="185.07" arrivalPos="58.94" from="nt15_nt16" to="nt4_np4"/>
    <trip id="pse1198" type="griddist1" depart="823.00" departPos="38.14" arrivalPos="1.18" from="np10_nt15" to="nt3_np3"/>
    <trip id="pse1199" type="griddist1" depart="833.00" departPos="23.17" arrivalPos="49.49" from="np13_nt13" to="nt4_np4"/>
    <trip id="pse1200" type="griddist1" depart="836.00" departPos="11.62" arrivalPos="19.11" from="np11_nt14" to="nt4_np4"/>
    <trip id="pse1201" type="griddist1" depart="847.00" departPos="100.18" arrivalPos="47.72" from="nt3_nt2" to="nt3_np3"/>
    <trip id="pse1202" type="griddist1" depart="858.00" departPos="162.66" arrivalPos="39.92" from="nt10_nt11" to="nt3_np3"/>
    <trip id="pse1203" type="griddist1" depart="860.00" departPos="32.41" arrivalPos="44.76" from="nt11_nt7" to="nt1_np1"/>
    <trip id="pse1204" type="griddist1" depart="860.00" departPos="129.24" arrivalPos="2.82" from="nt12_nt8" to="nt4_np4"/>
    <trip id="pse1205" type="griddist1" depart="862.00" departPos="62.64" arrivalPos="39.44" from="np3_nt3" to="nt3_np3"/>
    <trip id="pse1206" type="griddist1" depart="864.00" departPos="43.43" arrivalPos="15.45" from="nt2_nt1" to="nt4_np4"/>
    <trip id="pse1207" type="griddist1" depart="866.00" departPos="167.78" arrivalPos="12.53" from="nt8_nt7" to="nt4_np4"/>
    <trip id="pse1208" type="griddist1" depart="867.00" departPos="81.77" arrivalPos="49.71" from="nt14_nt15" to="nt3_np3"/>
    <trip id="pse1209" type="griddist1" depart="870.00" departPos="75.02" arrivalPos="10.47" from="nt2_nt6" to="nt3_np3"/>
    <trip id="pse1210" type="griddist1" depart="873.00" departPos="65.48" arrivalPos="3.37" from="np11_nt14" to="nt3_np3"/>
    <trip id="pse1211" type="griddist1" depart="875.00" departPos="70.07" arrivalPos="45.96" from="np9_nt16" to="nt2_np2"/>
    <trip id="pse1212" type="griddist1" depart="875.00" departPos="6.29" arrivalPos="10.36" from="np9_nt16" to="nt1_np1"/>
    <trip id="pse1213" type="griddist1" depart="876.00" departPos="62.33" arrivalPos="5.92" from="np9_nt16" to="nt3_np3"/>
    <trip id="pse1214" type="griddist1" depart="877.00" departPos="158.53" arrivalPos="60.11" from="nt7_nt3" to="nt4_np4"/>
    <trip id="pse1215" type="griddist1" depart="881.00" departPos="28.05" arrivalPos="24.95" from="np8_nt16" to="nt2_np2"/>
    <trip id="pse1216" type="griddist1" depart="891.00" departPos="23.90" arrivalPos="6.40" from="np10_nt15" to="nt1_np1"/>
    <trip id="pse1217" type="griddist1" depart="895.00" departPos="26.17" arrivalPos="2.47" from="nt16_nt12" to="nt2_np2"/>
    <trip id="pse1218" type="griddist1" depart="896.00" departPos="148.93" arrivalPos="49.02" from="nt7_nt3" to="nt2_np2"/>
    <trip id="pse1219" type="griddist1" depart="898.00" departPos="67.94" arrivalPos="1.23" from="np9_nt16" to="nt3_np3"/>
    <trip id="pse1220" type="griddist1" depart="898.00" departPos="70.52" arrivalPos="39.33" from="np12_nt13" to="nt1_np1"/>
    <trip id="pse1221" type="griddist1" depart="899.00" departPos="17.82" arrivalPos="7.87" from="np9_nt16" to="nt4_np4"/>
    <trip id="pse1222" type="griddist1" depart="902.00" departPos="46.71" arrivalPos="4.06" from="np12_nt13" to="nt3_np3"/>
    <trip id="pse1223" type="griddist1" depart="902.00" departPos="96.06" arrivalPos="40.82" from="nt5_nt1" to="nt2_np2"/>
    <trip id="pse1224" type="griddist1" depart="903.00" departPos="54.06" arrivalPos="0.10" from="nt11_nt12" to="nt3_np3"/>
    <trip id="pse1225" type="griddist1" depart="911.00" departPos="12.10" arrivalPos="43.17" from="np2_nt2" to="nt3_np3"/>
    <trip id="pse1226" type="griddist1" depart="913.00" departPos="176.95" arrivalPos="35.15" from="nt10_nt11" to="nt2_np2"/>
    <trip id="pse1227" type="griddist1" depart="914.00" departPos="3.77" arrivalPos="56.42" from="nt3_nt2" to="nt3_np3"/>
    <trip id="pse1228" type="griddist1" depart="920.00" departPos="28.00" arrivalPos="48.28" from="np10_nt15" to="nt2_np2"/>
    <trip id="pse1229" type="griddist1" depart="920.00" departPos="15.58" arrivalPos="42.45" from="np2_nt2" to="nt1_np1"/>