<routes>
    <trip arrivalPos="40.36" depart="64800" departPos="14.15" from="nt6_nt10" id="evening0_64800" to="np4_nt4" type="griddist1"/>
    <trip arrivalPos="43.15" depart="64802" departPos="52.86" from="nt10_nt11" id="evening1_64800" to="np2_nt2" type="griddist1"/>
    <trip arrivalPos="0.13" depart="64804" departPos="162.01" from="nt7_nt6" id="evening2_64800" to="np11_nt14" type="griddist1"/>
    <trip arrivalPos="65.62" depart="64804" departPos="139.00" from="nt11_nt7" id="evening3_64800" to="nt16_np9" type="griddist1"/>
    <trip arrivalPos="46.86" depart="64806" departPos="10.12" from="nt6_nt10" id="evening4_64800" to="np10_nt15" type="griddist1"/>
    <trip arrivalPos="23.46" depart="64812" departPos="102.09" from="nt11_nt7" id="evening5_64800" to="nt16_np9" type="griddist1"/>
    <trip arrivalPos="49.09" depart="64812" departPos="21.29" from="nt7_nt6" id="evening6_64800" to="np13_nt13" type="griddist1"/>
    <trip arrivalPos="46.68" depart="64813" departPos="60.04" from="nt6_nt10" id="evening7_64800" to="np1_nt1" type="griddist1"/>
    <trip arrivalPos="17.03" depart="64815" departPos="71.71" from="nt10_nt11" id="evening8_64800" to="nt13_np13" type="griddist1"/>
    <trip arrivalPos="62.29" depart="64816" departPos="152.18" from="nt7_nt6" id="evening9_64800" to="np2_nt2" type="griddist1"/>
    <trip arrivalPos="11.88" depart="64817" departPos="24.93" from="nt11_nt7" id="evening10_64800" to="np6_nt8" type="griddist1"/>
    <trip arrivalPos="13.81" depart="64821" departPos="174.97" from="nt7_nt6" id="evening11_64800" to="nt12_np7" type="griddist1"/>
    <trip arrivalPos="31.54" depart="64826" departPos="66.77" from="nt10_nt11" id="evening12_64800" to="np9_nt16" type="griddist1"/>
    <trip arrivalPos="62.57" depart="64828" departPos="119.78" from="nt10_nt11" id="evening13_64800" to="np8_nt16" type="griddist1"/>
    <trip arrivalPos="37.22" depart="64831" departPos="133.49" from="nt10_nt11" id="evening14_64800" to="nt2_np2" type="griddist1"/>
    <trip arrivalPos="51.79" depart="64831" departPos="119.82" from="nt10_nt11" id="evening15_64800" to="np15_nt5" type="griddist1"/>
    <trip arrivalPos="26.94" depart="64831" departPos="134.90" from="nt6_nt10" id="evening16_64800" to="nt1_np16" type="griddist1"/>
    <trip arrivalPos="49.64" depart="64836" departPos="81.87" from="nt6_nt10" id="evening17_64800" to="nt15_np10" type="griddist1"/>
    <trip arrivalPos="24.43" depart="64845" departPos="41.88" from="nt10_nt11" id="evening18_64800" to="nt13_np12" type="griddist1"/>
    <trip arrivalPos="23.55" depart="64846" departPos="31.53" from="nt11_nt7" id="evening19_64800" to="np13_nt13" type="griddist1"/>
    <trip arrivalPos="23.51" depart="64848" departPos="76.52" from="nt10_nt11" id="evening20_64800" to="nt2_np2" type="griddist1"/>
    <trip arrivalPos="54.92" depart="64852" departPos="98.71" from="nt11_nt7" id="evening21_64800" to="nt4_np5" type="griddist1"/>
    <trip arrivalPos="22.04" depart="64853" departPos="147.94" from="nt7_nt6" id="evening22_64800" to="np14_nt9" type="griddist1"/>
    <trip arrivalPos="14.00" depart="64853" departPos="76.29" from="nt6_nt10" id="evening23_64800" to="np14_nt9" type="griddist1"/>
    <trip arrivalPos="24.08" depart="64857" departPos="2.44" from="nt10_nt11" id="evening24_64800" to="np8_nt16" type="griddist1"/>
    <trip arrivalPos="12.51" depart="64857" departPos="48.36" from="nt6_nt10" id="evening25_64800" to="np16_nt1" type="griddist1"/>
    <trip arrivalPos="0.50" depart="64858" departPos="55.33" from="nt11_nt7" id="evening26_64800" to="np5_nt4" type="griddist1"/>
    <trip arrivalPos="5.27" depart="64861" departPos="94.84" from="nt11_nt7" id="evening27_64800" to="np13_nt13" type="griddist1"/>
    <trip arrivalPos="38.40" depart="64861" departPos="33.78" from="nt11_nt7" id="evening28_64800" to="np14_nt9" type="griddist1"/>
    <trip arrivalPos="18.34" depart="64866" departPos="30.42" from="nt10_nt11" id="evening29_64800" to="np4_nt4" type="griddist1"/>
    <trip arrivalPos="25.73" depart="64871" departPos="157.77" from="nt6_nt10" id="evening30_64800" to="nt1_np1" type="griddist1"/>
    <trip arrivalPos="60.67" depart="64872" departPos="84.45" from="nt10_nt11" id="evening31_64800" to="np12_nt13" type="griddist1"/>
    <trip arrivalPos="23.08" depart="64874" departPos="68.03" from="nt10_nt11" id="evening32_64800" to="nt2_np2" type="griddist1"/>
    <trip arrivalPos="53.95" depart="64875" departPos="177.12" from="nt11_nt7" id="evening33_64800" to="np4_nt4" type="griddist1"/>
    <trip arrivalPos="42.51" depart="64876" departPos="39.81" from="nt6_nt10" id="evening34_64800" to="np6_nt8" type="griddist1"/>
    <trip arrivalPos="51.06" depart="64876" departPos="57.42" from="nt10_nt11" id="evening35_64800" to="np9_nt16" type="griddist1"/>
    <trip arrivalPos="35.81" depart="64876" departPos="17.07" from="nt6_nt10" id="evening36_64800" to="nt16_np8" type="griddist1"/>
    <trip arrivalPos="45.04" depart="64879" departPos="5.50" from="nt10_nt11" id="evening37_64800" to="nt4_np4" type="griddist1"/>
    <trip arrivalPos="1.91" depart="64881" departPos="13.31" from="nt10_nt11" id="evening38_64800" to="nt1_np16" type="griddist1"/>
    <trip arrivalPos="36.77" depart="64884" departPos="35.96" from="nt10_nt11" id="evening39_64800" to="nt8_np6" type="griddist1"/>
    <trip arrivalPos="38.03" depart="64884" departPos="131.22" from="nt7_nt6" id="evening40_64800" to="np2_nt2" type="griddist1"/>
    <trip arrivalPos="63.69" depart="64885" departPos="70.57" from="nt11_nt7" id="evening41_64800" to="np1_nt1" type="griddist1"/>
    <trip arrivalPos="8.55" depart="64885" departPos="54.23" from="nt10_nt11" id="evening42_64800" to="nt15_np10" type="griddist1"/>
    <trip arrivalPos="19.78" depart="64885" departPos="33.18" from="nt10_nt11" id="evening43_64800" to="np14_nt9" type="griddist1"/>
    <trip arrivalPos="32.53" depart="64887" departPos="54.35" from="nt6_nt10" id="evening44_64800" to="np4_nt4" type="griddist1"/>
    <trip arrivalPos="1.20" depart="64890" departPos="77.60" from="nt11_nt7" id="evening45_64800" to="nt8_np6" type="griddist1"/>
    <trip arrivalPos="44.30" depart="64891" departPos="59.82" from="nt10_nt11" id="evening46_64800" to="nt4_np5" type="griddist1"/>
    <trip arrivalPos="25.93" depart="64894" departPos="177.29" from="nt7_nt6" id="evening47_64800" to="np14_nt9" type="griddist1"/>
    <trip arrivalPos="21.87" depart="64895" departPos="149.56" from="nt7_nt6" id="evening48_64800" to="np2_nt2" type="griddist1"/>
    <trip arrivalPos="35.57" depart="64898" departPos="176.33" from="nt11_nt7" id="evening49_64800" to="nt13_np13" type="griddist1"/>
    <trip arrivalPos="44.54" depart="64901" departPos="65.30" from="nt10_nt11" id="evening50_64800" to="np8_nt16" type="griddist1"/>
    <trip arrivalPos="63.97" depart="64903" departPos="139.80" from="nt10_nt11" id="evening51_64800" to="nt1_np16" type="griddist1"/>
    <trip arrivalPos="65.97" depart="64904" departPos="23.98" from="nt7_nt6" id="evening52_64800" to="np14_nt9" type="griddist1"/>
    <trip arrivalPos="5.84" depart="64905" departPos="17.42" from="nt6_nt10" id="evening53_64800" to="np7_nt12" type="griddist1"/>
    <trip arrivalPos="44.52" depart="64906" departPos="10.84" from="nt10_nt11" id="evening54_64800" to="np10_nt15" type="griddist1"/>
    <trip arrivalPos="5.94" depart="64907" departPos="152.53" from="nt6_nt10" id="evening55_64800" to="nt2_np2" type="griddist1"/>
    <trip arrivalPos="51.80" depart="64912" departPos="112.16" from="nt11_nt7" id="evening56_64800" to="nt13_np12" type="griddist1"/>
    <trip arrivalPos="61.16" depart="64912" departPos="114.02" from="nt10_nt11" id="evening57_64800" to="nt13_np13" type="griddist1"/>
    <trip arrivalPos="57.44" depart="64913" departPos="141.32" from="nt6_nt10" id="evening58_64800" to="nt1_np1" type="griddist1"/>
    <trip arrivalPos="19.50" depart="64914" departPos="20.48" from="nt11_nt7" id="evening59_64800" to="np4_nt4" type="griddist1"/>
    <trip arrivalPos="71.01" depart="64914" departPos="3.35" from="nt10_nt11" id="evening60_64800" to="np5_nt4" type="griddist1"/>
    <trip arrivalPos="58.56" depart="64917" departPos="95.11" from="nt11_nt7" id="evening61_64800" to="nt8_np6" type="griddist1"/>
    <trip arrivalPos="2.78" depart="64926" departPos="35.39" from="nt7_nt6" id="evening62_64800" to="np16_nt1" type="griddist1"/>
    <trip arrivalPos="57.59" depart="64927" departPos="153.99" from="nt6_nt10" id="evening63_64800" to="np8_nt16" type="griddist1"/>
    <trip arrivalPos="33.43" depart="64928" departPos="70.82" from="nt11_nt7" id="evening64_64800" to="np13_nt13" type="griddist1"/>
    <trip arrivalPos="2.40" depart="64929" departPos="52.16" from="nt11_nt7" id="evening65_64800" to="np14_nt9" type="griddist1"/>
    <trip arrivalPos="24.42" depart="64929" departPos="163.80" from="nt6_nt10" id="evening66_64800" to="np7_nt12" type="griddist1"/>
    <trip arrivalPos="61.92" depart="64933" departPos="61.24" from="nt7_nt6" id="evening67_64800" to="nt5_np15" type="griddist1"/>
    <trip arrivalPos="35.48" depart="64935" departPos="81.49" from="nt7_nt6" id="evening68_64800" to="nt13_np12" type="griddist1"/>
    <trip arrivalPos="16.18" depart="64939" departPos="26.11" from="nt6_nt10" id="evening69_64800" to="np3_nt3" type="griddist1"/>
    <trip arrivalPos="37.18" depart="64942" departPos="14.50" from="nt6_nt10" id="evening70_64800" to="nt16_np9" type="griddist1"/>
    <trip arrivalPos="35.18" depart="64945" departPos="7.55" from="nt11_nt7" id="evening71_64800" to="np8_nt16" type="griddist1"/>
    <trip arrivalPos="74.62" depart="64946" departPos="61.49" from="nt11_nt7" id="evening72_64800" to="nt15_np10" type="griddist1"/>
    <trip arrivalPos="19.14" depart="64947" departPos="134.85" from="nt10_nt11" id="evening73_64800" to="np4_nt4" type="griddist1"/>
    <trip arrivalPos="45.75" depart="64947" departPos="123.83" from="nt10_nt11" id="evening74_64800" to="nt13_np13" type="griddist1"/>
    <trip arrivalPos="29.80" depart="64948" departPos="4.80" from="nt7_nt6" id="evening75_64800" to="np3_nt3" type="griddist1"/>
    <trip arrivalPos="62.61" depart="64950" departPos="167.69" from="nt6_nt10" id="evening76_64800" to="np16_nt1" type="griddist1"/>
    <trip arrivalPos="68.34" depart="64950" departPos="17.57" from="nt7_nt6" id="evening77_64800" to="nt7_nt6" type="griddist1"/>
    <trip arrivalPos="30.84" depart="64952" departPos="179.00" from="nt6_nt10" id="evening78_64800" to="np14_nt9" type="griddist1"/>
    <trip arrivalPos="46.90" depart="64957" departPos="109.85" from="nt6_nt10" id="evening79_64800" to="nt4_np4" type="griddist1"/>
    <trip arrivalPos="62.54" depart="64958" departPos="54.10" from="nt7_nt6" id="evening80_64800" to="nt1_np16" type="griddist1"/>
    <trip arrivalPos="22.77" depart="64959" departPos="161.93" from="nt6_nt10" id="evening81_64800" to="np14_nt9" type="griddist1"/>
    <trip arrivalPos="16.52" depart="64959" departPos="62.21" from="nt6_nt10" id="evening82_64800" to="np1_nt1" type="griddist1"/>
    <trip arrivalPos="51.67" depart="64967" departPos="45.32" from="nt11_nt7" id="evening83_64800" to="nt15_np10" type="griddist1"/>
    <trip arrivalPos="31.66" depart="64968" departPos="27.73" from="nt6_nt10" id="evening84_64800" to="np4_nt4" type="griddist1"/>
    <trip arrivalPos="48.60" depart="64970" departPos="146.28" from="nt11_nt7" id="evening85_64800" to="np1_nt1" type="griddist1"/>
    <trip arrivalPos="58.29" depart="64972" departPos="95.62" from="nt10_nt11" id="evening86_64800" to="np2_nt2" type="griddist1"/>
    <trip arrivalPos="4.66" depart="64973" departPos="70.89" from="nt10_nt11" id="evening87_64800" to="np13_nt13" type="griddist1"/>
    <trip arrivalPos="37.37" depart="64973" departPos="68.65" from="nt11_nt7" id="evening88_64800" to="nt3_np3" type="griddist1"/>
    <trip arrivalPos="30.09" depart="64976" departPos="68.64" from="nt11_nt7" id="evening89_64800" to="nt15_np10" type="griddist1"/>
    <trip arrivalPos="68.74" depart="64979" departPos="114.85" from="nt10_nt11" id="evening90_64800" to="np7_nt12" type="griddist1"/>
    <trip arrivalPos="55.19" depart="64985" departPos="20.45" from="nt6_nt10" id="evening91_64800" to="np5_nt4" type="griddist1"/>
    <trip arrivalPos="26.43" depart="64989" departPos="121.55" from="nt7_nt6" id="evening92_64800" to="nt15_np10" type="griddist1"/>
    <trip arrivalPos="22.08" depart="64989" departPos="0.24" from="nt7_nt6" id="evening93_64800" to="np7_nt12" type="griddist1"/>
    <trip arrivalPos="34.88" depart="64991" departPos="66.03" from="nt10_nt11" id="evening94_64800" to="nt13_np12" type="griddist1"/>
    <trip arrivalPos="9.02" depart="64991" departPos="2.63" from="nt11_nt7" id="evening95_64800" to="nt1_np1" type="griddist1"/>
    <trip arrivalPos="43.82" depart="64991" departPos="65.20" from="nt10_nt11" id="evening96_64800" to="nt2_np2" type="griddist1"/>
    <trip arrivalPos="33.46" depart="64995" departPos="141.26" from="nt11_nt7" id="evening97_64800" to="nt16_np9" type="griddist1"/>
    <trip arrivalPos="6.01" depart="65001" departPos="158.44" from="nt6_nt10" id="evening98_64800" to="np14_nt9" type="griddist1"/>
    <trip arrivalPos="7.31" depart="65001" departPos="101.86" from="nt7_nt6" id="evening99_64800" to="nt9_np14" type="griddist1"/>
    <trip arrivalPos="45.88" depart="65004" departPos="102.31" from="nt10_nt11" id="evening100_64800" to="np3_nt3" type="griddist1"/>
    <trip arrivalPos="44.14" depart="65008" departPos="17.20" from="nt7_nt6" id="evening101_64800" to="np10_nt15" type="griddist1"/>
    <trip arrivalPos="44.84" depart="65011" departPos="34.00" from="nt7_nt6" id="evening102_64800" to="nt9_np14" type="griddist1"/>
    <trip arrivalPos="26.01" depart="65012" departPos="69.41" from="nt10_nt11" id="evening103_64800" to="nt3_np3" type="griddist1"/>
    <trip arrivalPos="68.16" depart="65012" departPos="130.69" from="nt6_nt10" id="evening104_64800" to="np7_nt12" type="griddist1"/>
    <trip arrivalPos="8.22" depart="65014" departPos="83.39" from="nt6_nt10" id="evening105_64800" to="nt1_np1" type="griddist1"/>
    <trip arrivalPos="23.83" depart="65015" departPos="17.34" from="nt11_nt7" id="evening106_64800" to="np16_nt1" type="griddist1"/>
    <trip arrivalPos="45.11" depart="65016" departPos="131.39" from="nt10_nt11" id="evening107_64800" to="np1_nt1" type="griddist1"/>
    <trip arrivalPos="1.22" depart="65022" departPos="58.21" from="nt10_nt11" id="evening108_64800" to="np11_nt14" type="griddist1"/>
    <trip arrivalPos="42.96" depart="65025" departPos="167.36" from="nt10_nt11" id="evening109_64800" to="np5_nt4" type="griddist1"/>
    <trip arrivalPos="9.56" depart="65028" departPos="98.22" from="nt7_nt6" id="evening110_64800" to="nt13_np13" type="griddist1"/>
    <trip arrivalPos="6.26" depart="65031" departPos="175.52" from="nt10_nt11" id="evening111_64800" to="nt13_np13" type="griddist1"/>
    <trip arrivalPos="32.77" depart="65035" departPos="3.84" from="nt7_nt6" id="evening112_64800" to="np14_nt9" type="griddist1"/>
    <trip arrivalPos="58.59" depart="65035" departPos="115.10" from="nt7_nt6" id="evening113_64800" to="nt15_np10" type="griddist1"/>
    <trip arrivalPos="8.36" depart="65036" departPos="50.80" from="nt11_nt7" id="evening114_64800" to="np4_nt4" type="griddist1"/>
    <trip arrivalPos="36.72" depart="65040" departPos="105.45" from="nt6_nt10" id="evening115_64800" to="np12_nt13" type="griddist1"/>
    <trip arrivalPos="73.72" depart="65042" departPos="171.77" from="nt10_nt11" id="evening116_64800" to="nt15_np10" type="griddist1"/>
    <trip arrivalPos="15.89" depart="65043" departPos="156.49" from="nt11_nt7" id="evening117_64800" to="np4_nt4" type="griddist1"/>
    <trip arrivalPos="5.76" depart="65043" departPos="69.00" from="nt10_nt11" id="evening118_64800" to="np14_nt9" type="griddist1"/>
    <trip arrivalPos="69.13" depart="65045" departPos="91.99" from="nt6_nt10" id="evening119_64800" to="nt14_np11" type="griddist1"/>
    <trip arrivalPos="72.61" depart="65050" departPos="67.51" from="nt11_nt7" id="evening120_64800" to="np10_nt15" type="griddist1"/>
    <trip arrivalPos="55.26" depart="65051" departPos="67.97" from="nt11_nt7" id="evening121_64800" to="np16_nt1" type="griddist1"/>
    <trip arrivalPos="15.27" depart="65052" departPos="13.01" from="nt11_nt7" id="evening122_64800" to="nt16_np8" type="griddist1"/>
    <trip arrivalPos="33.79" depart="65055" departPos="24.86" from="nt10_nt11" id="evening123_64800" to="nt15_np10" type="griddist1"/>
    <trip arrivalPos="25.41" depart="65056" departPos="131.20" from="nt11_nt7" id="evening124_64800" to="nt1_np1" type="griddist1"/>
    <trip arrivalPos="64.54" depart="65057" departPos="48.80" from="nt7_nt6" id="evening125_64800" to="np6_nt8" type="griddist1"/>
    <trip arrivalPos="44.31" depart="65059" departPos="163.88" from="nt6_nt10" id="evening126_64800" to="nt8_np6" type="griddist1"/>
    <trip arrivalPos="63.60" depart="65060" departPos="146.52" from="nt11_nt7" id="evening127_64800" to="nt16_np9" type="griddist1"/>
    <trip arrivalPos="65.48" depart="65065" departPos="51.32" from="nt11_nt7" id="evening128_64800" to="np15_nt5" type="griddist1"/>
    <trip arrivalPos="11.14" depart="65066" departPos="41.18" from="nt11_nt7" id="evening129_64800" to="np1_nt1" type="griddist1"/>
    <trip arrivalPos="33.35" depart="65069" departPos="84.88" from="nt7_nt6" id="evening130_64800" to="np13_nt13" type="griddist1"/>
    <trip arrivalPos="65.25" depart="65074" departPos="100.02" from="nt11_nt7" id="evening131_64800" to="nt16_np9" type="griddist1"/>
    <trip arrivalPos="44.42" depart="65076" departPos="73.01" from="nt10_nt11" id="evening132_64800" to="np12_nt13" type="griddist1"/>
    <trip arrivalPos="30.54" depart="65077" departPos="52.55" from="nt6_nt10" id="evening133_64800" to="np6_nt8" type="griddist1"/>
    <trip arrivalPos="17.94" depart="65077" departPos="29.14" from="nt6_nt10" id="evening134_64800" to="nt13_np13" type="griddist1"/>
    <trip arrivalPos="73.34" depart="65078" departPos="57.70" from="nt6_nt10" id="evening135_64800" to="np11_nt14" type="griddist1"/>
    <trip arrivalPos="28.90" depart="65079" departPos="34.73" from="nt6_nt10" id="evening136_64800" to="nt2_np2" type="griddist1"/>
    <trip arrivalPos="61.66" depart="65079" departPos="62.78" from="nt6_nt10" id="evening137_64800" to="nt8_np6" type="griddist1"/>
    <trip arrivalPos="63.55" depart="65084" departPos="44.88" from="nt10_nt11" id="evening138_64800" to="nt13_np12" type="griddist1"/>
    <trip arrivalPos="4.81" depart="65087" departPos="111.39" from="nt7_nt6" id="evening139_64800" to="nt13_np12" type="griddist1"/>
    <trip arrivalPos="62.83" depart="65088" departPos="38.51" from="nt6_nt10" id="evening140_64800" to="nt2_np2" type="griddist1"/>
    <trip arrivalPos="1.66" depart="65093" departPos="125.38" from="nt6_nt10" id="evening141_64800" to="np3_nt3" type="griddist1"/>
    <trip arrivalPos="3.31" depart="65096" departPos="41.23" from="nt6_nt10" id="evening142_64800" to="nt13_np13" type="griddist1"/>
    <trip arrivalPos="57.98" depart="65099" departPos="19.28" from="nt7_nt6" id="evening143_64800" to="nt1_np1" type="griddist1"/>
    <trip arrivalPos="48.95" depart="65102" departPos="91.11" from="nt7_nt6" id="evening144_64800" to="np13_nt13" type="griddist1"/>
    <trip arrivalPos="56.77" depart="65103" departPos="40.51" from="nt10_nt11" id="evening145_64800" to="np7_nt12" type="griddist1"/>
    <trip arrivalPos="0.11" depart="65105" departPos="181.39" from="nt10_nt11" id="evening146_64800" to="np10_nt15" type="griddist1"/>
    <trip arrivalPos="9.63" depart="65105" departPos="162.80" from="nt11_nt7" id="evening147_64800" to="np6_nt8" type="griddist1"/>
    <trip arrivalPos="30.75" depart="65105" departPos="72.40" from="nt10_nt11" id="evening148_64800" to="np10_nt15" type="griddist1"/>
    <trip arrivalPos="8.80" depart="65111" departPos="146.70" from="nt10_nt11" id="evening149_64800" to="nt3_np3" type="griddist1"/>
    <trip arrivalPos="3.44" depart="65114" departPos="41.98" from="nt6_nt10" id="evening150_64800" to="np14_nt9" type="griddist1"/>
    <trip arrivalPos="13.66" depart="65114" departPos="77.91" from="nt11_nt7" id="evening151_64800" to="np11_nt14" type="griddist1"/>
    <trip arrivalPos="36.21" depart="65114" departPos="108.20" from="nt11_nt7" id="evening152_64800" to="nt15_np10" type="griddist1"/>
    <trip arrivalPos="4.17" depart="65116" departPos="70.07" from="nt11_nt7" id="evening153_64800" to="nt16_np9" type="griddist1"/>
    <trip arrivalPos="24.54" depart="65116" departPos="126.56" from="nt7_nt6" id="evening154_64800" to="np7_nt12" type="griddist1"/>
    <trip arrivalPos="10.78" depart="65117" departPos="128.06" from="nt6_nt10" id="evening155_64800" to="nt1_np16" type="griddist1"/>
    <trip arrivalPos="55.70" depart="65117" departPos="135.91" from="nt10_nt11" id="evening156_64800" to="np15_nt5" type="griddist1"/>
    <trip arrivalPos="18.08" depart="65124" departPos="67.52" from="nt7_nt6" id="evening157_64800" to="nt14_np11" type="griddist1"/>
    <trip arrivalPos="61.74" depart="65126" departPos="12.90" from="nt11_nt7" id="evening158_64800" to="nt2_np2" type="griddist1"/>
    <trip arrivalPos="33.15" depart="65130" departPos="122.49" from="nt6_nt10" id="evening159_64800" to="np16_nt1" type="griddist1"/>
    <trip arrivalPos="47.22" depart="65130" departPos="4.59" from="nt7_nt6" id="evening160_64800" to="np11_nt14" type="griddist1"/>
    <trip arrivalPos="55.72" depart="65134" departPos="122.99" from="nt7_nt6" id="evening161_64800" to="np8_nt16" type="griddist1"/>
    <trip arrivalPos="72.91" depart="65138" departPos="52.09" from="nt6_nt10" id="evening162_64800" to="np5_nt4" type="griddist1"/>
    <trip arrivalPos="19.69" depart="65140" departPos="130.55" from="nt10_nt11" id="evening163_64800" to="nt14_np11" type="griddist1"/>
    <trip arrivalPos="55.93" depart="65141" departPos="159.29" from="nt7_nt6" id="evening164_64800" to="nt8_np6" type="griddist1"/>
    <trip arrivalPos="44.65" depart="65142" departPos="11.85" from="nt7_nt6" id="evening165_64800" to="nt4_np5" type="griddist1"/>
    <trip arrivalPos="9.49" depart="65142" departPos="24.86" from="nt7_nt6" id="evening166_64800" to="nt4_np4" type="griddist1"/>
    <trip arrivalPos="51.08" depart="65143" departPos="66.66" from="nt7_nt6" id="evening167_64800" to="np4_nt4" type="griddist1"/>
    <trip arrivalPos="25.45" depart="65144" departPos="163.91" from="nt10_nt11" id="evening168_64800" to="np8_nt16" type="griddist1"/>
    <trip arrivalPos="52.78" depart="65146" departPos="156.42" from="nt7_nt6" id="evening169_64800" to="nt1_np16" type="griddist1"/>
    <trip arrivalPos="38.75" depart="65147" departPos="151.43" from="nt10_nt11" id="evening170_64800" to="nt2_np2" type="griddist1"/>
    <trip arrivalPos="2.07" depart="65147" departPos="107.85" from="nt11_nt7" id="evening171_64800" to="nt4_np4" type="griddist1"/>
    <trip arrivalPos="37.36" depart="65147" departPos="154.28" from="nt6_nt10" id="evening172_64800" to="np12_nt13" type="griddist1"/>
    <trip arrivalPos="12.06" depart="65147" departPos="49.38" from="nt11_nt7" id="evening173_64800" to="np14_nt9" type="griddist1"/>
    <trip arrivalPos="28.41" depart="65150" departPos="83.40" from="nt7_nt6" id="evening174_64800" to="np6_nt8" type="griddist1"/>
    <trip arrivalPos="58.20" depart="65153" departPos="57.48" from="nt11_nt7" id="evening175_64800" to="nt5_np15" type="griddist1"/>
    <trip arrivalPos="37.85" depart="65154" departPos="10.74" from="nt11_nt7" id="evening176_64800" to="np2_nt2" type="griddist1"/>
    <trip arrivalPos="24.23" depart="65159" departPos="49.38" from="nt11_nt7" id="evening177_64800" to="np1_nt1" type="griddist1"/>
    <trip arrivalPos="36.14" depart="65161" departPos="126.48" from="nt7_nt6" id="evening178_64800" to="np6_nt8" type="griddist1"/>
    <trip arrivalPos="3.16" depart="65164" departPos="139.31" from="nt7_nt6" id="evening179_64800" to="np2_nt2" type="griddist1"/>
    <trip arrivalPos="6.86" depart="65166" departPos="22.82" from="nt6_nt10" id="evening180_64800" to="nt4_np5" type="griddist1"/>
    <trip arrivalPos="73.92" depart="65168" departPos="116.75" from="nt11_nt7" id="evening181_64800" to="nt8_np6" type="griddist1"/>
    <trip arrivalPos="35.83" depart="65170" departPos="130.92" from="nt11_nt7" id="evening182_64800" to="nt16_np8" type="griddist1"/>
    <trip arrivalPos="29.89" depart="65170" departPos="169.22" from="nt7_nt6" id="evening183_64800" to="np13_nt13" type="griddist1"/>
    <trip arrivalPos="71.10" depart="65171" departPos="149.94" from="nt10_nt11" id="evening184_64800" to="nt12_np7" type="griddist1"/>
    <trip arrivalPos="2.58" depart="65173" departPos="24.17" from="nt11_nt7" id="evening185_64800" to="nt16_np8" type="griddist1"/>
    <trip arrivalPos="60.48" depart="65173" departPos="145.53" from="nt7_nt6" id="evening186_64800" to="nt14_np11" type="griddist1"/>
    <trip arrivalPos="25.14" depart="65176" departPos="168.44" from="nt11_nt7" id="evening187_64800" to="nt14_np11" type="griddist1"/>
    <trip arrivalPos="53.23" depart="65176" departPos="119.52" from="nt11_nt7" id="evening188_64800" to="nt16_np8" type="griddist1"/>
    <trip arrivalPos="36.29" depart="65177" departPos="52.55" from="nt11_nt7" id="evening189_64800" to="nt14_np11" type="griddist1"/>
    <trip arrivalPos="3.14" depart="65179" departPos="55.71" from="nt10_nt11" id="evening190_64800" to="np4_nt4" type="griddist1"/>
    <trip arrivalPos="17.43" depart="65180" departPos="167.95" from="nt7_nt6" id="evening191_64800" to="np12_nt13" type="griddist1"/>
    <trip arrivalPos="14.41" depart="65184" departPos="66.26" from="nt7_nt6" id="evening192_64800" to="nt1_np16" type="griddist1"/>
    <trip arrivalPos="54.24" depart="65185" departPos="122.35" from="nt7_nt6" id="evening193_64800" to="nt5_np15" type="griddist1"/>
    <trip arrivalPos="55.27" depart="65186" departPos="16.08" from="nt6_nt10" id="evening194_64800" to="np12_nt13" type="griddist1"/>
    <trip arrivalPos="50.88" depart="65187" departPos="10.02" from="nt7_nt6" id="evening195_64800" to="np2_nt2" type="griddist1"/>
    <trip arrivalPos="21.61" depart="65189" departPos="153.55" from="nt10_nt11" id="evening196_64800" to="np1_nt1" type="griddist1"/>
    <trip arrivalPos="54.30" depart="65192" departPos="181.46" from="nt10_nt11" id="evening197_64800" to="np1_nt1" type="griddist1"/>
    <trip arrivalPos="73.70" depart="65193" departPos="12.50" from="nt7_nt6" id="evening198_64800" to="np10_nt15" type="griddist1"/>
    <trip arrivalPos="63.57" depart="65195" departPos="143.47" from="nt6_nt10" id="evening199_64800" to="nt5_np15" type="griddist1"/>
    <trip arrivalPos="62.11" depart="65198" departPos="138.11" from="nt11_nt7" id="evening200_64800" to="nt14_np11" type="griddist1"/>
    <trip arrivalPos="60.25" depart="65198" departPos="119.11" from="nt10_nt11" id="evening201_64800" to="nt1_np1" type="griddist1"/>
    <trip arrivalPos="57.60" depart="65199" departPos="19.93" from="nt7_nt6" id="evening202_64800" to="np15_nt5" type="griddist1"/>
    <trip arrivalPos="72.95" depart="65200" departPos="65.97" from="nt10_nt11" id="evening203_64800" to="np12_nt13" type="griddist1"/>
    <trip arrivalPos="5.76" depart="65204" departPos="7.48" from="nt7_nt6" id="evening204_64800" to="np8_nt16" type="griddist1"/>
    <trip arrivalPos="29.48" depart="65204" departPos="130.37" from="nt6_nt10" id="evening205_64800" to="nt1_np1" type="griddist1"/>
    <trip arrivalPos="31.52" depart="65207" departPos="35.94" from="nt11_nt7" id="evening206_64800" to="nt3_np3" type="griddist1"/>
    <trip arrivalPos="44.92" depart="65209" departPos="116.89" from="nt10_nt11" id="evening207_64800" to="np11_nt14" type="griddist1"/>
    <trip arrivalPos="52.68" depart="65210" departPos="29.35" from="nt7_nt6" id="evening208_64800" to="nt14_np11" type="griddist1"/>
    <trip arrivalPos="2.91" depart="65210" departPos="55.88" from="nt10_nt11" id="evening209_64800" to="nt13_np13" type="griddist1"/>
    <trip arrivalPos="40.93" depart="65211" departPos="99.12" from="nt6_nt10" id="evening210_64800" to="nt4_np4" type="griddist1"/>
    <trip arrivalPos="29.81" depart="65212" departPos="145.50" from="nt6_nt10" id="evening211_64800" to="nt13_np12" type="griddist1"/>
    <trip arrivalPos="14.19" depart="65213" departPos="30.90" from="nt11_nt7" id="evening212_64800" to="nt3_np3" type="griddist1"/>
    <trip arrivalPos="49.12" depart="65214" departPos="55.48" from="nt10_nt11" id="evening213_64800" to="nt16_np9" type="griddist1"/>
    <trip arrivalPos="6.68" depart="65215" departPos="48.81" from="nt10_nt11" id="evening214_64800" to="np11_nt14" type="griddist1"/>
    <trip arrivalPos="29.31" depart="65216" departPos="24.33" from="nt6_nt10" id="evening215_64800" to="nt2_np2" type="griddist1"/>
    <trip arrivalPos="16.45" depart="65223" departPos="151.13" from="nt11_nt7" id="evening216_64800" to="np10_nt15" type="griddist1"/>
    <trip arrivalPos="74.52" depart="65236" departPos="91.29" from="nt11_nt7" id="evening217_64800" to="np10_nt15" type="griddist1"/>
    <trip arrivalPos="21.55" depart="65237" departPos="48.67" from="nt10_nt11" id="evening218_64800" to="nt13_np13" type="griddist1"/>
    <trip arrivalPos="52.83" depart="65237" departPos="104.86" from="nt6_nt10" id="evening219_64800" to="np13_nt13" type="griddist1"/>
    <trip arrivalPos="12.57" depart="65238" departPos="165.32" from="nt7_nt6" id="evening220_64800" to="nt16_np9" type="griddist1"/>
    <trip arrivalPos="55.04" depart="65239" departPos="130.82" from="nt6_nt10" id="evening221_64800" to="nt13_np13" type="griddist1"/>
    <trip arrivalPos="4.95" depart="65239" departPos="42.54" from="nt10_nt11" id="evening222_64800" to="nt15_np10" type="griddist1"/>
    <trip arrivalPos="64.29" depart="65242" departPos="120.98" from="nt6_nt10" id="evening223_64800" to="np3_nt3" type="griddist1"/>
    <trip arrivalPos="33.31" depart="65242" departPos="106.60" from="nt7_nt6" id="evening224_64800" to="nt12_np7" type="griddist1"/>
    <trip arrivalPos="50.81" depart="65249" departPos="147.66" from="nt11_nt7" id="evening225_64800" to="np4_nt4" type="griddist1"/>