<routes>
    <trip arrivalPos="40.36" depart="68400" departPos="14.15" from="nt6_nt10" id="evening0_68400" to="np4_nt4" type="griddist1"/>
    <trip arrivalPos="43.15" depart="68402" departPos="52.86" from="nt10_nt11" id="evening1_68400" to="np2_nt2" type="griddist1"/>
    <trip arrivalPos="0.13" depart="68404" departPos="162.01" from="nt7_nt6" id="evening2_68400" to="np11_nt14" type="griddist1"/>
    <trip arrivalPos="65.62" depart="68404" departPos="139.00" from="nt11_nt7" id="evening3_68400" to="nt16_np9" type="griddist1"/>
    <trip arrivalPos="46.86" depart="68406" departPos="10.12" from="nt6_nt10" id="evening4_68400" to="np10_nt15" type="griddist1"/>
    <trip arrivalPos="23.46" depart="68412" departPos="102.09" from="nt11_nt7" id="evening5_68400" to="nt16_np9" type="griddist1"/>
    <trip arrivalPos="49.09" depart="68412" departPos="21.29" from="nt7_nt6" id="evening6_68400" to="np13_nt13" type="griddist1"/>
    <trip arrivalPos="46.68" depart="68413" departPos="60.04" from="nt6_nt10" id="evening7_68400" to="np1_nt1" type="griddist1"/>
    <trip arrivalPos="17.03" depart="68415" departPos="71.71" from="nt10_nt11" id="evening8_68400" to="nt13_np13" type="griddist1"/>
    <trip arrivalPos="62.29" depart="68416" departPos="152.18" from="nt7_nt6" id="evening9_68400" to="np2_nt2" type="griddist1"/>
    <trip arrivalPos="11.88" depart="68417" departPos="24.93" from="nt11_nt7" id="evening10_68400" to="np6_nt8" type="griddist1"/>
    <trip arrivalPos="13.81" depart="68421" departPos="174.97" from="nt7_nt6" id="evening11_68400" to="nt12_np7" type="griddist1"/>
    <trip arrivalPos="31.54" depart="68426" departPos="66.77" from="nt10_nt11" id="evening12_68400" to="np9_nt16" type="griddist1"/>
    <trip arrivalPos="62.57" depart="68428" departPos="119.78" from="nt10_nt11" id="evening13_68400" to="np8_nt16" type="griddist1"/>
    <trip arrivalPos="37.22" depart="68431" departPos="133.49" from="nt10_nt11" id="evening14_68400" to="nt2_np2" type="griddist1"/>
    <trip arrivalPos="51.79" depart="68431" departPos="119.82" from="nt10_nt11" id="evening15_68400" to="np15_nt5" type="griddist1"/>
    <trip arrivalPos="26.94" depart="68431" departPos="134.90" from="nt6_nt10" id="evening16_68400" to="nt1_np16" type="griddist1"/>
    <trip arrivalPos="49.64" depart="68436" departPos="81.87" from="nt6_nt10" id="evening17_68400" to="nt15_np10" type="griddist1"/>
    <trip arrivalPos="24.43" depart="68445" departPos="41.88" from="nt10_nt11" id="evening18_68400" to="nt13_np12" type="griddist1"/>
    <trip arrivalPos="23.55" depart="68446" departPos="31.53" from="nt11_nt7" id="evening19_68400" to="np13_nt13" type="griddist1"/>
    <trip arrivalPos="23.51" depart="68448" departPos="76.52" from="nt10_nt11" id="evening20_68400" to="nt2_np2" type="griddist1"/>
    <trip arrivalPos="54.92" depart="68452" departPos="98.71" from="nt11_nt7" id="evening21_68400" to="nt4_np5" type="griddist1"/>
    <trip arrivalPos="22.04" depart="68453" departPos="147.94" from="nt7_nt6" id="evening22_68400" to="np14_nt9" type="griddist1"/>
    <trip arrivalPos="14.00" depart="68453" departPos="76.29" from="nt6_nt10" id="evening23_68400" to="np14_nt9" type="griddist1"/>
    <trip arrivalPos="24.08" depart="68457" departPos="2.44" from="nt10_nt11" id="evening24_68400" to="np8_nt16" type="griddist1"/>
    <trip arrivalPos="12.51" depart="68457" departPos="48.36" from="nt6_nt10" id="evening25_68400" to="np16_nt1" type="griddist1"/>
    <trip arrivalPos="0.50" depart="68458" departPos="55.33" from="nt11_nt7" id="evening26_68400" to="np5_nt4" type="griddist1"/>
    <trip arrivalPos="5.27" depart="68461" departPos="94.84" from="nt11_nt7" id="evening27_68400" to="np13_nt13" type="griddist1"/>
    <trip arrivalPos="38.40" depart="68461" departPos="33.78" from="nt11_nt7" id="evening28_68400" to="np14_nt9" type="griddist1"/>
    <trip arrivalPos="18.34" depart="68466" departPos="30.42" from="nt10_nt11" id="evening29_68400" to="np4_nt4" type="griddist1"/>
    <trip arrivalPos="25.73" depart="68471" departPos="157.77" from="nt6_nt10" id="evening30_68400" to="nt1_np1" type="griddist1"/>
    <trip arrivalPos="60.67" depart="68472" departPos="84.45" from="nt10_nt11" id="evening31_68400" to="np12_nt13" type="griddist1"/>
    <trip arrivalPos="23.08" depart="68474" departPos="68.03" from="nt10_nt11" id="evening32_68400" to="nt2_np2" type="griddist1"/>
    <trip arrivalPos="53.95" depart="68475" departPos="177.12" from="nt11_nt7" id="evening33_68400" to="np4_nt4" type="griddist1"/>
    <trip arrivalPos="42.51" depart="68476" departPos="39.81" from="nt6_nt10" id="evening34_68400" to="np6_nt8" type="griddist1"/>
    <trip arrivalPos="51.06" depart="68476" departPos="57.42" from="nt10_nt11" id="evening35_68400" to="np9_nt16" type="griddist1"/>
    <trip arrivalPos="35.81" depart="68476" departPos="17.07" from="nt6_nt10" id="evening36_68400" to="nt16_np8" type="griddist1"/>
    <trip arrivalPos="45.04" depart="68479" departPos="5.50" from="nt10_nt11" id="evening37_68400" to="nt4_np4" type="griddist1"/>
    <trip arrivalPos="1.91" depart="68481" departPos="13.31" from="nt10_nt11" id="evening38_68400" to="nt1_np16" type="griddist1"/>
    <trip arrivalPos="36.77" depart="68484" departPos="35.96" from="nt10_nt11" id="evening39_68400" to="nt8_np6" type="griddist1"/>
    <trip arrivalPos="38.03" depart="68484" departPos="131.22" from="nt7_nt6" id="evening40_68400" to="np2_nt2" type="griddist1"/>
    <trip arrivalPos="63.69" depart="68485" departPos="70.57" from="nt11_nt7" id="evening41_68400" to="np1_nt1" type="griddist1"/>
    <trip arrivalPos="8.55" depart="68485" departPos="54.23" from="nt10_nt11" id="evening42_68400" to="nt15_np10" type="griddist1"/>
    <trip arrivalPos="19.78" depart="68485" departPos="33.18" from="nt10_nt11" id="evening43_68400" to="np14_nt9" type="griddist1"/>
    <trip arrivalPos="32.53" depart="68487" departPos="54.35" from="nt6_nt10" id="evening44_68400" to="np4_nt4" type="griddist1"/>
    <trip arrivalPos="1.20" depart="68490" departPos="77.60" from="nt11_nt7" id="evening45_68400" to="nt8_np6" type="griddist1"/>
    <trip arrivalPos="44.30" depart="68491" departPos="59.82" from="nt10_nt11" id="evening46_68400" to="nt4_np5" type="griddist1"/>
    <trip arrivalPos="25.93" depart="68494" departPos="177.29" from="nt7_nt6" id="evening47_68400" to="np14_nt9" type="griddist1"/>
    <trip arrivalPos="21.87" depart="68495" departPos="149.56" from="nt7_nt6" id="evening48_68400" to="np2_nt2" type="griddist1"/>
    <trip arrivalPos="35.57" depart="68498" departPos="176.33" from="nt11_nt7" id="evening49_68400" to="nt13_np13" type="griddist1"/>
    <trip arrivalPos="44.54" depart="68501" departPos="65.30" from="nt10_nt11" id="evening50_68400" to="np8_nt16" type="griddist1"/>
    <trip arrivalPos="63.97" depart="68503" departPos="139.80" from="nt10_nt11" id="evening51_68400" to="nt1_np16" type="griddist1"/>
    <trip arrivalPos="65.97" depart="68504" departPos="23.98" from="nt7_nt6" id="evening52_68400" to="np14_nt9" type="griddist1"/>
    <trip arrivalPos="5.84" depart="68505" departPos="17.42" from="nt6_nt10" id="evening53_68400" to="np7_nt12" type="griddist1"/>
    <trip arrivalPos="44.52" depart="68506" departPos="10.84" from="nt10_nt11" id="evening54_68400" to="np10_nt15" type="griddist1"/>
    <trip arrivalPos="5.94" depart="68507" departPos="152.53" from="nt6_nt10" id="evening55_68400" to="nt2_np2" type="griddist1"/>
    <trip arrivalPos="51.80" depart="68512" departPos="112.16" from="nt11_nt7" id="evening56_68400" to="nt13_np12" type="griddist1"/>
    <trip arrivalPos="61.16" depart="68512" departPos="114.02" from="nt10_nt11" id="evening57_68400" to="nt13_np13" type="griddist1"/>
    <trip arrivalPos="57.44" depart="68513" departPos="141.32" from="nt6_nt10" id="evening58_68400" to="nt1_np1" type="griddist1"/>
    <trip arrivalPos="19.50" depart="68514" departPos="20.48" from="nt11_nt7" id="evening59_68400" to="np4_nt4" type="griddist1"/>
    <trip arrivalPos="71.01" depart="68514" departPos="3.35" from="nt10_nt11" id="evening60_68400" to="np5_nt4" type="griddist1"/>
    <trip arrivalPos="58.56" depart="68517" departPos="95.11" from="nt11_nt7" id="evening61_68400" to="nt8_np6" type="griddist1"/>
    <trip arrivalPos="2.78" depart="68526" departPos="35.39" from="nt7_nt6" id="evening62_68400" to="np16_nt1" type="griddist1"/>
    <trip arrivalPos="57.59" depart="68527" departPos="153.99" from="nt6_nt10" id="evening63_68400" to="np8_nt16" type="griddist1"/>
    <trip arrivalPos="33.43" depart="68528" departPos="70.82" from="nt11_nt7" id="evening64_68400" to="np13_nt13" type="griddist1"/>
    <trip arrivalPos="2.40" depart="68529" departPos="52.16" from="nt11_nt7" id="evening65_68400" to="np14_nt9" type="griddist1"/>
    <trip arrivalPos="24.42" depart="68529" departPos="163.80" from="nt6_nt10" id="evening66_68400" to="np7_nt12" type="griddist1"/>
    <trip arrivalPos="61.92" depart="68533" departPos="61.24" from="nt7_nt6" id="evening67_68400" to="nt5_np15" type="griddist1"/>
    <trip arrivalPos="35.48" depart="68535" departPos="81.49" from="nt7_nt6" id="evening68_68400" to="nt13_np12" type="griddist1"/>
    <trip arrivalPos="16.18" depart="68539" departPos="26.11" from="nt6_nt10" id="evening69_68400" to="np3_nt3" type="griddist1"/>
    <trip arrivalPos="37.18" depart="68542" departPos="14.50" from="nt6_nt10" id="evening70_68400" to="nt16_np9" type="griddist1"/>
    <trip arrivalPos="35.18" depart="68545" departPos="7.55" from="nt11_nt7" id="evening71_68400" to="np8_nt16" type="griddist1"/>
    <trip arrivalPos="74.62" depart="68546" departPos="61.49" from="nt11_nt7" id="evening72_68400" to="nt15_np10" type="griddist1"/>
    <trip arrivalPos="19.14" depart="68547" departPos="134.85" from="nt10_nt11" id="evening73_68400" to="np4_nt4" type="griddist1"/>
    <trip arrivalPos="45.75" depart="68547" departPos="123.83" from="nt10_nt11" id="evening74_68400" to="nt13_np13" type="griddist1"/>
    <trip arrivalPos="29.80" depart="68548" departPos="4.80" from="nt7_nt6" id="evening75_68400" to="np3_nt3" type="griddist1"/>
    <trip arrivalPos="62.61" depart="68550" departPos="167.69" from="nt6_nt10" id="evening76_68400" to="np16_nt1" type="griddist1"/>
    <trip arrivalPos="68.34" depart="68550" departPos="17.57" from="nt7_nt6" id="evening77_68400" to="nt7_nt6" type="griddist1"/>
    <trip arrivalPos="30.84" depart="68552" departPos="179.00" from="nt6_nt10" id="evening78_68400" to="np14_nt9" type="griddist1"/>
    <trip arrivalPos="46.90" depart="68557" departPos="109.85" from="nt6_nt10" id="evening79_68400" to="nt4_np4" type="griddist1"/>
    <trip arrivalPos="62.54" depart="68558" departPos="54.10" from="nt7_nt6" id="evening80_68400" to="nt1_np16" type="griddist1"/>
    <trip arrivalPos="22.77" depart="68559" departPos="161.93" from="nt6_nt10" id="evening81_68400" to="np14_nt9" type="griddist1"/>
    <trip arrivalPos="16.52" depart="68559" departPos="62.21" from="nt6_nt10" id="evening82_68400" to="np1_nt1" type="griddist1"/>
    <trip arrivalPos="51.67" depart="68567" departPos="45.32" from="nt11_nt7" id="evening83_68400" to="nt15_np10" type="griddist1"/>
    <trip arrivalPos="31.66" depart="68568" departPos="27.73" from="nt6_nt10" id="evening84_68400" to="np4_nt4" type="griddist1"/>
    <trip arrivalPos="48.60" depart="68570" departPos="146.28" from="nt11_nt7" id="evening85_68400" to="np1_nt1" type="griddist1"/>
    <trip arrivalPos="58.29" depart="68572" departPos="95.62" from="nt10_nt11" id="evening86_68400" to="np2_nt2" type="griddist1"/>
    <trip arrivalPos="4.66" depart="68573" departPos="70.89" from="nt10_nt11" id="evening87_68400" to="np13_nt13" type="griddist1"/>
    <trip arrivalPos="37.37" depart="68573" departPos="68.65" from="nt11_nt7" id="evening88_68400" to="nt3_np3" type="griddist1"/>
    <trip arrivalPos="30.09" depart="68576" departPos="68.64" from="nt11_nt7" id="evening89_68400" to="nt15_np10" type="griddist1"/>
    <trip arrivalPos="68.74" depart="68579" departPos="114.85" from="nt10_nt11" id="evening90_68400" to="np7_nt12" type="griddist1"/>
    <trip arrivalPos="55.19" depart="68585" departPos="20.45" from="nt6_nt10" id="evening91_68400" to="np5_nt4" type="griddist1"/>
    <trip arrivalPos="26.43" depart="68589" departPos="121.55" from="nt7_nt6" id="evening92_68400" to="nt15_np10" type="griddist1"/>
    <trip arrivalPos="22.08" depart="68589" departPos="0.24" from="nt7_nt6" id="evening93_68400" to="np7_nt12" type="griddist1"/>
    <trip arrivalPos="34.88" depart="68591" departPos="66.03" from="nt10_nt11" id="evening94_68400" to="nt13_np12" type="griddist1"/>
    <trip arrivalPos="9.02" depart="68591" departPos="2.63" from="nt11_nt7" id="evening95_68400" to="nt1_np1" type="griddist1"/>
    <trip arrivalPos="43.82" depart="68591" departPos="65.20" from="nt10_nt11" id="evening96_68400" to="nt2_np2" type="griddist1"/>
    <trip arrivalPos="33.46" depart="68595" departPos="141.26" from="nt11_nt7" id="evening97_68400" to="nt16_np9" type="griddist1"/>
    <trip arrivalPos="6.01" depart="68601" departPos="158.44" from="nt6_nt10" id="evening98_68400" to="np14_nt9" type="griddist1"/>
    <trip arrivalPos="7.31" depart="68601" departPos="101.86" from="nt7_nt6" id="evening99_68400" to="nt9_np14" type="griddist1"/>
    <trip arrivalPos="45.88" depart="68604" departPos="102.31" from="nt10_nt11" id="evening100_68400" to="np3_nt3" type="griddist1"/>
    <trip arrivalPos="44.14" depart="68608" departPos="17.20" from="nt7_nt6" id="evening101_68400" to="np10_nt15" type="griddist1"/>
    <trip arrivalPos="44.84" depart="68611" departPos="34.00" from="nt7_nt6" id="evening102_68400" to="nt9_np14" type="griddist1"/>
    <trip arrivalPos="26.01" depart="68612" departPos="69.41" from="nt10_nt11" id="evening103_68400" to="nt3_np3" type="griddist1"/>
    <trip arrivalPos="68.16" depart="68612" departPos="130.69" from="nt6_nt10" id="evening104_68400" to="np7_nt12" type="griddist1"/>
    <trip arrivalPos="8.22" depart="68614" departPos="83.39" from="nt6_nt10" id="evening105_68400" to="nt1_np1" type="griddist1"/>
    <trip arrivalPos="23.83" depart="68615" departPos="17.34" from="nt11_nt7" id="evening106_68400" to="np16_nt1" type="griddist1"/>
    <trip arrivalPos="45.11" depart="68616" departPos="131.39" from="nt10_nt11" id="evening107_68400" to="np1_nt1" type="griddist1"/>
    <trip arrivalPos="1.22" depart="68622" departPos="58.21" from="nt10_nt11" id="evening108_68400" to="np11_nt14" type="griddist1"/>
    <trip arrivalPos="42.96" depart="68625" departPos="167.36" from="nt10_nt11" id="evening109_68400" to="np5_nt4" type="griddist1"/>
    <trip arrivalPos="9.56" depart="68628" departPos="98.22" from="nt7_nt6" id="evening110_68400" to="nt13_np13" type="griddist1"/>
    <trip arrivalPos="6.26" depart="68631" departPos="175.52" from="nt10_nt11" id="evening111_68400" to="nt13_np13" type="griddist1"/>
    <trip arrivalPos="32.77" depart="68635" departPos="3.84" from="nt7_nt6" id="evening112_68400" to="np14_nt9" type="griddist1"/>
    <trip arrivalPos="58.59" depart="68635" departPos="115.10" from="nt7_nt6" id="evening113_68400" to="nt15_np10" type="griddist1"/>
    <trip arrivalPos="8.36" depart="68636" departPos="50.80" from="nt11_nt7" id="evening114_68400" to="np4_nt4" type="griddist1"/>
    <trip arrivalPos="36.72" depart="68640" departPos="105.45" from="nt6_nt10" id="evening115_68400" to="np12_nt13" type="griddist1"/>
    <trip arrivalPos="73.72" depart="68642" departPos="171.77" from="nt10_nt11" id="evening116_68400" to="nt15_np10" type="griddist1"/>
    <trip arrivalPos="15.89" depart="68643" departPos="156.49" from="nt11_nt7" id="evening117_68400" to="np4_nt4" type="griddist1"/>
    <trip arrivalPos="5.76" depart="68643" departPos="69.00" from="nt10_nt11" id="evening118_68400" to="np14_nt9" type="griddist1"/>
    <trip arrivalPos="69.13" depart="68645" departPos="91.99" from="nt6_nt10" id="evening119_68400" to="nt14_np11" type="griddist1"/>
    <trip arrivalPos="72.61" depart="68650" departPos="67.51" from="nt11_nt7" id="evening120_68400" to="np10_nt15" type="griddist1"/>
    <trip arrivalPos="55.26" depart="68651" departPos="67.97" from="nt11_nt7" id="evening121_68400" to="np16_nt1" type="griddist1"/>
    <trip arrivalPos="15.27" depart="68652" departPos="13.01" from="nt11_nt7" id="evening122_68400" to="nt16_np8" type="griddist1"/>
    <trip arrivalPos="33.79" depart="68655" departPos="24.86" from="nt10_nt11" id="evening123_68400" to="nt15_np10" type="griddist1"/>
    <trip arrivalPos="25.41" depart="68656" departPos="131.20" from="nt11_nt7" id="evening124_68400" to="nt1_np1" type="griddist1"/>
    <trip arrivalPos="64.54" depart="68657" departPos="48.80" from="nt7_nt6" id="evening125_68400" to="np6_nt8" type="griddist1"/>
    <trip arrivalPos="44.31" depart="68659" departPos="163.88" from="nt6_nt10" id="evening126_68400" to="nt8_np6" type="griddist1"/>
    <trip arrivalPos="63.60" depart="68660" departPos="146.52" from="nt11_nt7" id="evening127_68400" to="nt16_np9" type="griddist1"/>
    <trip arrivalPos="65.48" depart="68665" departPos="51.32" from="nt11_nt7" id="evening128_68400" to="np15_nt5" type="griddist1"/>
    <trip arrivalPos="11.14" depart="68666" departPos="41.18" from="nt11_nt7" id="evening129_68400" to="np1_nt1" type="griddist1"/>
    <trip arrivalPos="33.35" depart="68669" departPos="84.88" from="nt7_nt6" id="evening130_68400" to="np13_nt13" type="griddist1"/>
    <trip arrivalPos="65.25" depart="68674" departPos="100.02" from="nt11_nt7" id="evening131_68400" to="nt16_np9" type="griddist1"/>
    <trip arrivalPos="44.42" depart="68676" departPos="73.01" from="nt10_nt11" id="evening132_68400" to="np12_nt13" type="griddist1"/>
    <trip arrivalPos="30.54" depart="68677" departPos="52.55" from="nt6_nt10" id="evening133_68400" to="np6_nt8" type="griddist1"/>
    <trip arrivalPos="17.94" depart="68677" departPos="29.14" from="nt6_nt10" id="evening134_68400" to="nt13_np13" type="griddist1"/>
    <trip arrivalPos="73.34" depart="68678" departPos="57.70" from="nt6_nt10" id="evening135_68400" to="np11_nt14" type="griddist1"/>
    <trip arrivalPos="28.90" depart="68679" departPos="34.73" from="nt6_nt10" id="evening136_68400" to="nt2_np2" type="griddist1"/>
    <trip arrivalPos="61.66" depart="68679" departPos="62.78" from="nt6_nt10" id="evening137_68400" to="nt8_np6" type="griddist1"/>
    <trip arrivalPos="63.55" depart="68684" departPos="44.88" from="nt10_nt11" id="evening138_68400" to="nt13_np12" type="griddist1"/>
    <trip arrivalPos="4.81" depart="68687" departPos="111.39" from="nt7_nt6" id="evening139_68400" to="nt13_np12" type="griddist1"/>
    <trip arrivalPos="62.83" depart="68688" departPos="38.51" from="nt6_nt10" id="evening140_68400" to="nt2_np2" type="griddist1"/>
    <trip arrivalPos="1.66" depart="68693" departPos="125.38" from="nt6_nt10" id="evening141_68400" to="np3_nt3" type="griddist1"/>
    <trip arrivalPos="3.31" depart="68696" departPos="41.23" from="nt6_nt10" id="evening142_68400" to="nt13_np13" type="griddist1"/>
    <trip arrivalPos="57.98" depart="68699" departPos="19.28" from="nt7_nt6" id="evening143_68400" to="nt1_np1" type="griddist1"/>
    <trip arrivalPos="48.95" depart="68702" departPos="91.11" from="nt7_nt6" id="evening144_68400" to="np13_nt13" type="griddist1"/>
    <trip arrivalPos="56.77" depart="68703" departPos="40.51" from="nt10_nt11" id="evening145_68400" to="np7_nt12" type="griddist1"/>
    <trip arrivalPos="0.11" depart="68705" departPos="181.39" from="nt10_nt11" id="evening146_68400" to="np10_nt15" type="griddist1"/>
    <trip arrivalPos="9.63" depart="68705" departPos="162.80" from="nt11_nt7" id="evening147_68400" to="np6_nt8" type="griddist1"/>
    <trip arrivalPos="30.75" depart="68705" departPos="72.40" from="nt10_nt11" id="evening148_68400" to="np10_nt15" type="griddist1"/>
    <trip arrivalPos="8.80" depart="68711" departPos="146.70" from="nt10_nt11" id="evening149_68400" to="nt3_np3" type="griddist1"/>
    <trip arrivalPos="3.44" depart="68714" departPos="41.98" from="nt6_nt10" id="evening150_68400" to="np14_nt9" type="griddist1"/>
    <trip arrivalPos="13.66" depart="68714" departPos="77.91" from="nt11_nt7" id="evening151_68400" to="np11_nt14" type="griddist1"/>
    <trip arrivalPos="36.21" depart="68714" departPos="108.20" from="nt11_nt7" id="evening152_68400" to="nt15_np10" type="griddist1"/>
    <trip arrivalPos="4.17" depart="68716" departPos="70.07" from="nt11_nt7" id="evening153_68400" to="nt16_np9" type="griddist1"/>
    <trip arrivalPos="24.54" depart="68716" departPos="126.56" from="nt7_nt6" id="evening154_68400" to="np7_nt12" type="griddist1"/>
    <trip arrivalPos="10.78" depart="68717" departPos="128.06" from="nt6_nt10" id="evening155_68400" to="nt1_np16" type="griddist1"/>
    <trip arrivalPos="55.70" depart="68717" departPos="135.91" from="nt10_nt11" id="evening156_68400" to="np15_nt5" type="griddist1"/>
    <trip arrivalPos="18.08" depart="68724" departPos="67.52" from="nt7_nt6" id="evening157_68400" to="nt14_np11" type="griddist1"/>
    <trip arrivalPos="61.74" depart="68726" departPos="12.90" from="nt11_nt7" id="evening158_68400" to="nt2_np2" type="griddist1"/>
    <trip arrivalPos="33.15" depart="68730" departPos="122.49" from="nt6_nt10" id="evening159_68400" to="np16_nt1" type="griddist1"/>
    <trip arrivalPos="47.22" depart="68730" departPos="4.59" from="nt7_nt6" id="evening160_68400" to="np11_nt14" type="griddist1"/>
    <trip arrivalPos="55.72" depart="68734" departPos="122.99" from="nt7_nt6" id="evening161_68400" to="np8_nt16" type="griddist1"/>
    <trip arrivalPos="72.91" depart="68738" departPos="52.09" from="nt6_nt10" id="evening162_68400" to="np5_nt4" type="griddist1"/>
    <trip arrivalPos="19.69" depart="68740" departPos="130.55" from="nt10_nt11" id="evening163_68400" to="nt14_np11" type="griddist1"/>
    <trip arrivalPos="55.93" depart="68741" departPos="159.29" from="nt7_nt6" id="evening164_68400" to="nt8_np6" type="griddist1"/>
    <trip arrivalPos="44.65" depart="68742" departPos="11.85" from="nt7_nt6" id="evening165_68400" to="nt4_np5" type="griddist1"/>
    <trip arrivalPos="9.49" depart="68742" departPos="24.86" from="nt7_nt6" id="evening166_68400" to="nt4_np4" type="griddist1"/>
    <trip arrivalPos="51.08" depart="68743" departPos="66.66" from="nt7_nt6" id="evening167_68400" to="np4_nt4" type="griddist1"/>
    <trip arrivalPos="25.45" depart="68744" departPos="163.91" from="nt10_nt11" id="evening168_68400" to="np8_nt16" type="griddist1"/>
    <trip arrivalPos="52.78" depart="68746" departPos="156.42" from="nt7_nt6" id="evening169_68400" to="nt1_np16" type="griddist1"/>
    <trip arrivalPos="38.75" depart="68747" departPos="151.43" from="nt10_nt11" id="evening170_68400" to="nt2_np2" type="griddist1"/>
    <trip arrivalPos="2.07" depart="68747" departPos="107.85" from="nt11_nt7" id="evening171_68400" to="nt4_np4" type="griddist1"/>
    <trip arrivalPos="37.36" depart="68747" departPos="154.28" from="nt6_nt10" id="evening172_68400" to="np12_nt13" type="griddist1"/>
    <trip arrivalPos="12.06" depart="68747" departPos="49.38" from="nt11_nt7" id="evening173_68400" to="np14_nt9" type="griddist1"/>
    <trip arrivalPos="28.41" depart="68750" departPos="83.40" from="nt7_nt6" id="evening174_68400" to="np6_nt8" type="griddist1"/>
    <trip arrivalPos="58.20" depart="68753" departPos="57.48" from="nt11_nt7" id="evening175_68400" to="nt5_np15" type="griddist1"/>
    <trip arrivalPos="37.85" depart="68754" departPos="10.74" from="nt11_nt7" id="evening176_68400" to="np2_nt2" type="griddist1"/>
    <trip arrivalPos="24.23" depart="68759" departPos="49.38" from="nt11_nt7" id="evening177_68400" to="np1_nt1" type="griddist1"/>
    <trip arrivalPos="36.14" depart="68761" departPos="126.48" from="nt7_nt6" id="evening178_68400" to="np6_nt8" type="griddist1"/>
    <trip arrivalPos="3.16" depart="68764" departPos="139.31" from="nt7_nt6" id="evening179_68400" to="np2_nt2" type="griddist1"/>
    <trip arrivalPos="6.86" depart="68766" departPos="22.82" from="nt6_nt10" id="evening180_68400" to="nt4_np5" type="griddist1"/>
    <trip arrivalPos="73.92" depart="68768" departPos="116.75" from="nt11_nt7" id="evening181_68400" to="nt8_np6" type="griddist1"/>
    <trip arrivalPos="35.83" depart="68770" departPos="130.92" from="nt11_nt7" id="evening182_68400" to="nt16_np8" type="griddist1"/>
    <trip arrivalPos="29.89" depart="68770" departPos="169.22" from="nt7_nt6" id="evening183_68400" to="np13_nt13" type="griddist1"/>
    <trip arrivalPos="71.10" depart="68771" departPos="149.94" from="nt10_nt11" id="evening184_68400" to="nt12_np7" type="griddist1"/>
    <trip arrivalPos="2.58" depart="68773" departPos="24.17" from="nt11_nt7" id="evening185_68400" to="nt16_np8" type="griddist1"/>
    <trip arrivalPos="60.48" depart="68773" departPos="145.53" from="nt7_nt6" id="evening186_68400" to="nt14_np11" type="griddist1"/>
    <trip arrivalPos="25.14" depart="68776" departPos="168.44" from="nt11_nt7" id="evening187_68400" to="nt14_np11" type="griddist1"/>
    <trip arrivalPos="53.23" depart="68776" departPos="119.52" from="nt11_nt7" id="evening188_68400" to="nt16_np8" type="griddist1"/>
    <trip arrivalPos="36.29" depart="68777" departPos="52.55" from="nt11_nt7" id="evening189_68400" to="nt14_np11" type="griddist1"/>
    <trip arrivalPos="3.14" depart="68779" departPos="55.71" from="nt10_nt11" id="evening190_68400" to="np4_nt4" type="griddist1"/>
    <trip arrivalPos="17.43" depart="68780" departPos="167.95" from="nt7_nt6" id="evening191_68400" to="np12_nt13" type="griddist1"/>
    <trip arrivalPos="14.41" depart="68784" departPos="66.26" from="nt7_nt6" id="evening192_68400" to="nt1_np16" type="griddist1"/>
    <trip arrivalPos="54.24" depart="68785" departPos="122.35" from="nt7_nt6" id="evening193_68400" to="nt5_np15" type="griddist1"/>
    <trip arrivalPos="55.27" depart="68786" departPos="16.08" from="nt6_nt10" id="evening194_68400" to="np12_nt13" type="griddist1"/>
    <trip arrivalPos="50.88" depart="68787" departPos="10.02" from="nt7_nt6" id="evening195_68400" to="np2_nt2" type="griddist1"/>
    <trip arrivalPos="21.61" depart="68789" departPos="153.55" from="nt10_nt11" id="evening196_68400" to="np1_nt1" type="griddist1"/>
    <trip arrivalPos="54.30" depart="68792" departPos="181.46" from="nt10_nt11" id="evening197_68400" to="np1_nt1" type="griddist1"/>
    <trip arrivalPos="73.70" depart="68793" departPos="12.50" from="nt7_nt6" id="evening198_68400" to="np10_nt15" type="griddist1"/>
    <trip arrivalPos="63.57" depart="68795" departPos="143.47" from="nt6_nt10" id="evening199_68400" to="nt5_np15" type="griddist1"/>
    <trip arrivalPos="62.11" depart="68798" departPos="138.11" from="nt11_nt7" id="evening200_68400" to="nt14_np11" type="griddist1"/>
    <trip arrivalPos="60.25" depart="68798" departPos="119.11" from="nt10_nt11" id="evening201_68400" to="nt1_np1" type="griddist1"/>
    <trip arrivalPos="57.60" depart="68799" departPos="19.93" from="nt7_nt6" id="evening202_68400" to="np15_nt5" type="griddist1"/>
    <trip arrivalPos="72.95" depart="68800" departPos="65.97" from="nt10_nt11" id="evening203_68400" to="np12_nt13" type="griddist1"/>
    <trip arrivalPos="5.76" depart="68804" departPos="7.48" from="nt7_nt6" id="evening204_68400" to="np8_nt16" type="griddist1"/>
    <trip arrivalPos="29.48" depart="68804" departPos="130.37" from="nt6_nt10" id="evening205_68400" to="nt1_np1" type="griddist1"/>
    <trip arrivalPos="31.52" depart="68807" departPos="35.94" from="nt11_nt7" id="evening206_68400" to="nt3_np3" type="griddist1"/>
    <trip arrivalPos="44.92" depart="68809" departPos="116.89" from="nt10_nt11" id="evening207_68400" to="np11_nt14" type="griddist1"/>
    <trip arrivalPos="52.68" depart="68810" departPos="29.35" from="nt7_nt6" id="evening208_68400" to="nt14_np11" type="griddist1"/>
    <trip arrivalPos="2.91" depart="68810" departPos="55.88" from="nt10_nt11" id="evening209_68400" to="nt13_np13" type="griddist1"/>
    <trip arrivalPos="40.93" depart="68811" departPos="99.12" from="nt6_nt10" id="evening210_68400" to="nt4_np4" type="griddist1"/>
    <trip arrivalPos="29.81" depart="68812" departPos="145.50" from="nt6_nt10" id="evening211_68400" to="nt13_np12" type="griddist1"/>
    <trip arrivalPos="14.19" depart="68813" departPos="30.90" from="nt11_nt7" id="evening212_68400" to="nt3_np3" type="griddist1"/>
    <trip arrivalPos="49.12" depart="68814" departPos="55.48" from="nt10_nt11" id="evening213_68400" to="nt16_np9" type="griddist1"/>
    <trip arrivalPos="6.68" depart="68815" departPos="48.81" from="nt10_nt11" id="evening214_68400" to="np11_nt14" type="griddist1"/>
    <trip arrivalPos="29.31" depart="68816" departPos="24.33" from="nt6_nt10" id="evening215_68400" to="nt2_np2" type="griddist1"/>
    <trip arrivalPos="16.45" depart="68823" departPos="151.13" from="nt11_nt7" id="evening216_68400" to="np10_nt15" type="griddist1"/>
    <trip arrivalPos="74.52" depart="68836" departPos="91.29" from="nt11_nt7" id="evening217_68400" to="np10_nt15" type="griddist1"/>
    <trip arrivalPos="21.55" depart="68837" departPos="48.67" from="nt10_nt11" id="evening218_68400" to="nt13_np13" type="griddist1"/>
    <trip arrivalPos="52.83" depart="68837" departPos="104.86" from="nt6_nt10" id="evening219_68400" to="np13_nt13" type="griddist1"/>
    <trip arrivalPos="12.57" depart="68838" departPos="165.32" from="nt7_nt6" id="evening220_68400" to="nt16_np9" type="griddist1"/>
    <trip arrivalPos="55.04" depart="68839" departPos="130.82" from="nt6_nt10" id="evening221_68400" to="nt13_np13" type="griddist1"/>
    <trip arrivalPos="4.95" depart="68839" departPos="42.54" from="nt10_nt11" id="evening222_68400" to="nt15_np10" type="griddist1"/>
    <trip arrivalPos="64.29" depart="68842" departPos="120.98" from="nt6_nt10" id="evening223_68400" to="np3_nt3" type="griddist1"/>
    <trip arrivalPos="33.31" depart="68842" departPos="106.60" from="nt7_nt6" id="evening224_68400" to="nt12_np7" type="griddist1"/>
    <trip arrivalPos="50.81" depart="68849" departPos="147.66" from="nt11_nt7" id="evening225_68400" to="np4_nt4" type="griddist1"/>