<routes>
    <trip arrivalPos="40.36" depart="72000" departPos="14.15" from="nt6_nt10" id="evening0_72000" to="np4_nt4" type="griddist1"/>
    <trip arrivalPos="43.15" depart="72002" departPos="52.86" from="nt10_nt11" id="evening1_72000" to="np2_nt2" type="griddist1"/>
    <trip arrivalPos="0.13" depart="72004" departPos="162.01" from="nt7_nt6" id="evening2_72000" to="np11_nt14" type="griddist1"/>
    <trip arrivalPos="65.62" depart="72004" departPos="139.00" from="nt11_nt7" id="evening3_72000" to="nt16_np9" type="griddist1"/>
    <trip arrivalPos="46.86" depart="72006" departPos="10.12" from="nt6_nt10" id="evening4_72000" to="np10_nt15" type="griddist1"/>
    <trip arrivalPos="23.46" depart="72012" departPos="102.09" from="nt11_nt7" id="evening5_72000" to="nt16_np9" type="griddist1"/>
    <trip arrivalPos="49.09" depart="72012" departPos="21.29" from="nt7_nt6" id="evening6_72000" to="np13_nt13" type="griddist1"/>
    <trip arrivalPos="46.68" depart="72013" departPos="60.04" from="nt6_nt10" id="evening7_72000" to="np1_nt1" type="griddist1"/>
    <trip arrivalPos="17.03" depart="72015" departPos="71.71" from="nt10_nt11" id="evening8_72000" to="nt13_np13" type="griddist1"/>
    <trip arrivalPos="62.29" depart="72016" departPos="152.18" from="nt7_nt6" id="evening9_72000" to="np2_nt2" type="griddist1"/>
    <trip arrivalPos="11.88" depart="72017" departPos="24.93" from="nt11_nt7" id="evening10_72000" to="np6_nt8" type="griddist1"/>
    <trip arrivalPos="13.81" depart="72021" departPos="174.97" from="nt7_nt6" id="evening11_72000" to="nt12_np7" type="griddist1"/>
    <trip arrivalPos="31.54" depart="72026" departPos="66.77" from="nt10_nt11" id="evening12_72000" to="np9_nt16" type="griddist1"/>
    <trip arrivalPos="62.57" depart="72028" departPos="119.78" from="nt10_nt11" id="evening13_72000" to="np8_nt16" type="griddist1"/>
    <trip arrivalPos="37.22" depart="72031" departPos="133.49" from="nt10_nt11" id="evening14_72000" to="nt2_np2" type="griddist1"/>
    <trip arrivalPos="51.79" depart="72031" departPos="119.82" from="nt10_nt11" id="evening15_72000" to="np15_nt5" type="griddist1"/>
    <trip arrivalPos="26.94" depart="72031" departPos="134.90" from="nt6_nt10" id="evening16_72000" to="nt1_np16" type="griddist1"/>
    <trip arrivalPos="49.64" depart="72036" departPos="81.87" from="nt6_nt10" id="evening17_72000" to="nt15_np10" type="griddist1"/>
    <trip arrivalPos="24.43" depart="72045" departPos="41.88" from="nt10_nt11" id="evening18_72000" to="nt13_np12" type="griddist1"/>
    <trip arrivalPos="23.55" depart="72046" departPos="31.53" from="nt11_nt7" id="evening19_72000" to="np13_nt13" type="griddist1"/>
    <trip arrivalPos="23.51" depart="72048" departPos="76.52" from="nt10_nt11" id="evening20_72000" to="nt2_np2" type="griddist1"/>
    <trip arrivalPos="54.92" depart="72052" departPos="98.71" from="nt11_nt7" id="evening21_72000" to="nt4_np5" type="griddist1"/>
    <trip arrivalPos="22.04" depart="72053" departPos="147.94" from="nt7_nt6" id="evening22_72000" to="np14_nt9" type="griddist1"/>
    <trip arrivalPos="14.00" depart="72053" departPos="76.29" from="nt6_nt10" id="evening23_72000" to="np14_nt9" type="griddist1"/>
    <trip arrivalPos="24.08" depart="72057" departPos="2.44" from="nt10_nt11" id="evening24_72000" to="np8_nt16" type="griddist1"/>
    <trip arrivalPos="12.51" depart="72057" departPos="48.36" from="nt6_nt10" id="evening25_72000" to="np16_nt1" type="griddist1"/>
    <trip arrivalPos="0.50" depart="72058" departPos="55.33" from="nt11_nt7" id="evening26_72000" to="np5_nt4" type="griddist1"/>
    <trip arrivalPos="5.27" depart="72061" departPos="94.84" from="nt11_nt7" id="evening27_72000" to="np13_nt13" type="griddist1"/>
    <trip arrivalPos="38.40" depart="72061" departPos="33.78" from="nt11_nt7" id="evening28_72000" to="np14_nt9" type="griddist1"/>
    <trip arrivalPos="18.34" depart="72066" departPos="30.42" from="nt10_nt11" id="evening29_72000" to="np4_nt4" type="griddist1"/>
    <trip arrivalPos="25.73" depart="72071" departPos="157.77" from="nt6_nt10" id="evening30_72000" to="nt1_np1" type="griddist1"/>
    <trip arrivalPos="60.67" depart="72072" departPos="84.45" from="nt10_nt11" id="evening31_72000" to="np12_nt13" type="griddist1"/>
    <trip arrivalPos="23.08" depart="72074" departPos="68.03" from="nt10_nt11" id="evening32_72000" to="nt2_np2" type="griddist1"/>
    <trip arrivalPos="53.95" depart="72075" departPos="177.12" from="nt11_nt7" id="evening33_72000" to="np4_nt4" type="griddist1"/>
    <trip arrivalPos="42.51" depart="72076" departPos="39.81" from="nt6_nt10" id="evening34_72000" to="np6_nt8" type="griddist1"/>
    <trip arrivalPos="51.06" depart="72076" departPos="57.42" from="nt10_nt11" id="evening35_72000" to="np9_nt16" type="griddist1"/>
    <trip arrivalPos="35.81" depart="72076" departPos="17.07" from="nt6_nt10" id="evening36_72000" to="nt16_np8" type="griddist1"/>
    <trip arrivalPos="45.04" depart="72079" departPos="5.50" from="nt10_nt11" id="evening37_72000" to="nt4_np4" type="griddist1"/>
    <trip arrivalPos="1.91" depart="72081" departPos="13.31" from="nt10_nt11" id="evening38_72000" to="nt1_np16" type="griddist1"/>
    <trip arrivalPos="36.77" depart="72084" departPos="35.96" from="nt10_nt11" id="evening39_72000" to="nt8_np6" type="griddist1"/>
    <trip arrivalPos="38.03" depart="72084" departPos="131.22" from="nt7_nt6" id="evening40_72000" to="np2_nt2" type="griddist1"/>
    <trip arrivalPos="63.69" depart="72085" departPos="70.57" from="nt11_nt7" id="evening41_72000" to="np1_nt1" type="griddist1"/>
    <trip arrivalPos="8.55" depart="72085" departPos="54.23" from="nt10_nt11" id="evening42_72000" to="nt15_np10" type="griddist1"/>
    <trip arrivalPos="19.78" depart="72085" departPos="33.18" from="nt10_nt11" id="evening43_72000" to="np14_nt9" type="griddist1"/>
    <trip arrivalPos="32.53" depart="72087" departPos="54.35" from="nt6_nt10" id="evening44_72000" to="np4_nt4" type="griddist1"/>
    <trip arrivalPos="1.20" depart="72090" departPos="77.60" from="nt11_nt7" id="evening45_72000" to="nt8_np6" type="griddist1"/>
    <trip arrivalPos="44.30" depart="72091" departPos="59.82" from="nt10_nt11" id="evening46_72000" to="nt4_np5" type="griddist1"/>
    <trip arrivalPos="25.93" depart="72094" departPos="177.29" from="nt7_nt6" id="evening47_72000" to="np14_nt9" type="griddist1"/>
    <trip arrivalPos="21.87" depart="72095" departPos="149.56" from="nt7_nt6" id="evening48_72000" to="np2_nt2" type="griddist1"/>
    <trip arrivalPos="35.57" depart="72098" departPos="176.33" from="nt11_nt7" id="evening49_72000" to="nt13_np13" type="griddist1"/>
    <trip arrivalPos="44.54" depart="72101" departPos="65.30" from="nt10_nt11" id="evening50_72000" to="np8_nt16" type="griddist1"/>
    <trip arrivalPos="63.97" depart="72103" departPos="139.80" from="nt10_nt11" id="evening51_72000" to="nt1_np16" type="griddist1"/>
    <trip arrivalPos="65.97" depart="72104" departPos="23.98" from="nt7_nt6" id="evening52_72000" to="np14_nt9" type="griddist1"/>
    <trip arrivalPos="5.84" depart="72105" departPos="17.42" from="nt6_nt10" id="evening53_72000" to="np7_nt12" type="griddist1"/>
    <trip arrivalPos="44.52" depart="72106" departPos="10.84" from="nt10_nt11" id="evening54_72000" to="np10_nt15" type="griddist1"/>
    <trip arrivalPos="5.94" depart="72107" departPos="152.53" from="nt6_nt10" id="evening55_72000" to="nt2_np2" type="griddist1"/>
    <trip arrivalPos="51.80" depart="72112" departPos="112.16" from="nt11_nt7" id="evening56_72000" to="nt13_np12" type="griddist1"/>
    <trip arrivalPos="61.16" depart="72112" departPos="114.02" from="nt10_nt11" id="evening57_72000" to="nt13_np13" type="griddist1"/>
    <trip arrivalPos="57.44" depart="72113" departPos="141.32" from="nt6_nt10" id="evening58_72000" to="nt1_np1" type="griddist1"/>
    <trip arrivalPos="19.50" depart="72114" departPos="20.48" from="nt11_nt7" id="evening59_72000" to="np4_nt4" type="griddist1"/>
    <trip arrivalPos="71.01" depart="72114" departPos="3.35" from="nt10_nt11" id="evening60_72000" to="np5_nt4" type="griddist1"/>
    <trip arrivalPos="58.56" depart="72117" departPos="95.11" from="nt11_nt7" id="evening61_72000" to="nt8_np6" type="griddist1"/>
    <trip arrivalPos="2.78" depart="72126" departPos="35.39" from="nt7_nt6" id="evening62_72000" to="np16_nt1" type="griddist1"/>
    <trip arrivalPos="57.59" depart="72127" departPos="153.99" from="nt6_nt10" id="evening63_72000" to="np8_nt16" type="griddist1"/>
    <trip arrivalPos="33.43" depart="72128" departPos="70.82" from="nt11_nt7" id="evening64_72000" to="np13_nt13" type="griddist1"/>
    <trip arrivalPos="2.40" depart="72129" departPos="52.16" from="nt11_nt7" id="evening65_72000" to="np14_nt9" type="griddist1"/>
    <trip arrivalPos="24.42" depart="72129" departPos="163.80" from="nt6_nt10" id="evening66_72000" to="np7_nt12" type="griddist1"/>
    <trip arrivalPos="61.92" depart="72133" departPos="61.24" from="nt7_nt6" id="evening67_72000" to="nt5_np15" type="griddist1"/>
    <trip arrivalPos="35.48" depart="72135" departPos="81.49" from="nt7_nt6" id="evening68_72000" to="nt13_np12" type="griddist1"/>
    <trip arrivalPos="16.18" depart="72139" departPos="26.11" from="nt6_nt10" id="evening69_72000" to="np3_nt3" type="griddist1"/>
    <trip arrivalPos="37.18" depart="72142" departPos="14.50" from="nt6_nt10" id="evening70_72000" to="nt16_np9" type="griddist1"/>
    <trip arrivalPos="35.18" depart="72145" departPos="7.55" from="nt11_nt7" id="evening71_72000" to="np8_nt16" type="griddist1"/>
    <trip arrivalPos="74.62" depart="72146" departPos="61.49" from="nt11_nt7" id="evening72_72000" to="nt15_np10" type="griddist1"/>
    <trip arrivalPos="19.14" depart="72147" departPos="134.85" from="nt10_nt11" id="evening73_72000" to="np4_nt4" type="griddist1"/>
    <trip arrivalPos="45.75" depart="72147" departPos="123.83" from="nt10_nt11" id="evening74_72000" to="nt13_np13" type="griddist1"/>
    <trip arrivalPos="29.80" depart="72148" departPos="4.80" from="nt7_nt6" id="evening75_72000" to="np3_nt3" type="griddist1"/>
    <trip arrivalPos="62.61" depart="72150" departPos="167.69" from="nt6_nt10" id="evening76_72000" to="np16_nt1" type="griddist1"/>
    <trip arrivalPos="68.34" depart="72150" departPos="17.57" from="nt7_nt6" id="evening77_72000" to="nt7_nt6" type="griddist1"/>
    <trip arrivalPos="30.84" depart="72152" departPos="179.00" from="nt6_nt10" id="evening78_72000" to="np14_nt9" type="griddist1"/>
    <trip arrivalPos="46.90" depart="72157" departPos="109.85" from="nt6_nt10" id="evening79_72000" to="nt4_np4" type="griddist1"/>
    <trip arrivalPos="62.54" depart="72158" departPos="54.10" from="nt7_nt6" id="evening80_72000" to="nt1_np16" type="griddist1"/>
    <trip arrivalPos="22.77" depart="72159" departPos="161.93" from="nt6_nt10" id="evening81_72000" to="np14_nt9" type="griddist1"/>
    <trip arrivalPos="16.52" depart="72159" departPos="62.21" from="nt6_nt10" id="evening82_72000" to="np1_nt1" type="griddist1"/>
    <trip arrivalPos="51.67" depart="72167" departPos="45.32" from="nt11_nt7" id="evening83_72000" to="nt15_np10" type="griddist1"/>
    <trip arrivalPos="31.66" depart="72168" departPos="27.73" from="nt6_nt10" id="evening84_72000" to="np4_nt4" type="griddist1"/>
    <trip arrivalPos="48.60" depart="72170" departPos="146.28" from="nt11_nt7" id="evening85_72000" to="np1_nt1" type="griddist1"/>
    <trip arrivalPos="58.29" depart="72172" departPos="95.62" from="nt10_nt11" id="evening86_72000" to="np2_nt2" type="griddist1"/>
    <trip arrivalPos="4.66" depart="72173" departPos="70.89" from="nt10_nt11" id="evening87_72000" to="np13_nt13" type="griddist1"/>
    <trip arrivalPos="37.37" depart="72173" departPos="68.65" from="nt11_nt7" id="evening88_72000" to="nt3_np3" type="griddist1"/>
    <trip arrivalPos="30.09" depart="72176" departPos="68.64" from="nt11_nt7" id="evening89_72000" to="nt15_np10" type="griddist1"/>
    <trip arrivalPos="68.74" depart="72179" departPos="114.85" from="nt10_nt11" id="evening90_72000" to="np7_nt12" type="griddist1"/>
    <trip arrivalPos="55.19" depart="72185" departPos="20.45" from="nt6_nt10" id="evening91_72000" to="np5_nt4" type="griddist1"/>
    <trip arrivalPos="26.43" depart="72189" departPos="121.55" from="nt7_nt6" id="evening92_72000" to="nt15_np10" type="griddist1"/>
    <trip arrivalPos="22.08" depart="72189" departPos="0.24" from="nt7_nt6" id="evening93_72000" to="np7_nt12" type="griddist1"/>
    <trip arrivalPos="34.88" depart="72191" departPos="66.03" from="nt10_nt11" id="evening94_72000" to="nt13_np12" type="griddist1"/>
    <trip arrivalPos="9.02" depart="72191" departPos="2.63" from="nt11_nt7" id="evening95_72000" to="nt1_np1" type="griddist1"/>
    <trip arrivalPos="43.82" depart="72191" departPos="65.20" from="nt10_nt11" id="evening96_72000" to="nt2_np2" type="griddist1"/>
    <trip arrivalPos="33.46" depart="72195" departPos="141.26" from="nt11_nt7" id="evening97_72000" to="nt16_np9" type="griddist1"/>
    <trip arrivalPos="6.01" depart="72201" departPos="158.44" from="nt6_nt10" id="evening98_72000" to="np14_nt9" type="griddist1"/>
    <trip arrivalPos="7.31" depart="72201" departPos="101.86" from="nt7_nt6" id="evening99_72000" to="nt9_np14" type="griddist1"/>
    <trip arrivalPos="45.88" depart="72204" departPos="102.31" from="nt10_nt11" id="evening100_72000" to="np3_nt3" type="griddist1"/>
    <trip arrivalPos="44.14" depart="72208" departPos="17.20" from="nt7_nt6" id="evening101_72000" to="np10_nt15" type="griddist1"/>
    <trip arrivalPos="44.84" depart="72211" departPos="34.00" from="nt7_nt6" id="evening102_72000" to="nt9_np14" type="griddist1"/>
    <trip arrivalPos="26.01" depart="72212" departPos="69.41" from="nt10_nt11" id="evening103_72000" to="nt3_np3" type="griddist1"/>
    <trip arrivalPos="68.16" depart="72212" departPos="130.69" from="nt6_nt10" id="evening104_72000" to="np7_nt12" type="griddist1"/>
    <trip arrivalPos="8.22" depart="72214" departPos="83.39" from="nt6_nt10" id="evening105_72000" to="nt1_np1" type="griddist1"/>
    <trip arrivalPos="23.83" depart="72215" departPos="17.34" from="nt11_nt7" id="evening106_72000" to="np16_nt1" type="griddist1"/>
    <trip arrivalPos="45.11" depart="72216" departPos="131.39" from="nt10_nt11" id="evening107_72000" to="np1_nt1" type="griddist1"/>
    <trip arrivalPos="1.22" depart="72222" departPos="58.21" from="nt10_nt11" id="evening108_72000" to="np11_nt14" type="griddist1"/>
    <trip arrivalPos="42.96" depart="72225" departPos="167.36" from="nt10_nt11" id="evening109_72000" to="np5_nt4" type="griddist1"/>
    <trip arrivalPos="9.56" depart="72228" departPos="98.22" from="nt7_nt6" id="evening110_72000" to="nt13_np13" type="griddist1"/>
    <trip arrivalPos="6.26" depart="72231" departPos="175.52" from="nt10_nt11" id="evening111_72000" to="nt13_np13" type="griddist1"/>
    <trip arrivalPos="32.77" depart="72235" departPos="3.84" from="nt7_nt6" id="evening112_72000" to="np14_nt9" type="griddist1"/>
    <trip arrivalPos="58.59" depart="72235" departPos="115.10" from="nt7_nt6" id="evening113_72000" to="nt15_np10" type="griddist1"/>
    <trip arrivalPos="8.36" depart="72236" departPos="50.80" from="nt11_nt7" id="evening114_72000" to="np4_nt4" type="griddist1"/>
    <trip arrivalPos="36.72" depart="72240" departPos="105.45" from="nt6_nt10" id="evening115_72000" to="np12_nt13" type="griddist1"/>
    <trip arrivalPos="73.72" depart="72242" departPos="171.77" from="nt10_nt11" id="evening116_72000" to="nt15_np10" type="griddist1"/>
    <trip arrivalPos="15.89" depart="72243" departPos="156.49" from="nt11_nt7" id="evening117_72000" to="np4_nt4" type="griddist1"/>
    <trip arrivalPos="5.76" depart="72243" departPos="69.00" from="nt10_nt11" id="evening118_72000" to="np14_nt9" type="griddist1"/>
    <trip arrivalPos="69.13" depart="72245" departPos="91.99" from="nt6_nt10" id="evening119_72000" to="nt14_np11" type="griddist1"/>
    <trip arrivalPos="72.61" depart="72250" departPos="67.51" from="nt11_nt7" id="evening120_72000" to="np10_nt15" type="griddist1"/>
    <trip arrivalPos="55.26" depart="72251" departPos="67.97" from="nt11_nt7" id="evening121_72000" to="np16_nt1" type="griddist1"/>
    <trip arrivalPos="15.27" depart="72252" departPos="13.01" from="nt11_nt7" id="evening122_72000" to="nt16_np8" type="griddist1"/>
    <trip arrivalPos="33.79" depart="72255" departPos="24.86" from="nt10_nt11" id="evening123_72000" to="nt15_np10" type="griddist1"/>
    <trip arrivalPos="25.41" depart="72256" departPos="131.20" from="nt11_nt7" id="evening124_72000" to="nt1_np1" type="griddist1"/>
    <trip arrivalPos="64.54" depart="72257" departPos="48.80" from="nt7_nt6" id="evening125_72000" to="np6_nt8" type="griddist1"/>
    <trip arrivalPos="44.31" depart="72259" departPos="163.88" from="nt6_nt10" id="evening126_72000" to="nt8_np6" type="griddist1"/>
    <trip arrivalPos="63.60" depart="72260" departPos="146.52" from="nt11_nt7" id="evening127_72000" to="nt16_np9" type="griddist1"/>
    <trip arrivalPos="65.48" depart="72265" departPos="51.32" from="nt11_nt7" id="evening128_72000" to="np15_nt5" type="griddist1"/>
    <trip arrivalPos="11.14" depart="72266" departPos="41.18" from="nt11_nt7" id="evening129_72000" to="np1_nt1" type="griddist1"/>
    <trip arrivalPos="33.35" depart="72269" departPos="84.88" from="nt7_nt6" id="evening130_72000" to="np13_nt13" type="griddist1"/>
    <trip arrivalPos="65.25" depart="72274" departPos="100.02" from="nt11_nt7" id="evening131_72000" to="nt16_np9" type="griddist1"/>
    <trip arrivalPos="44.42" depart="72276" departPos="73.01" from="nt10_nt11" id="evening132_72000" to="np12_nt13" type="griddist1"/>
    <trip arrivalPos="30.54" depart="72277" departPos="52.55" from="nt6_nt10" id="evening133_72000" to="np6_nt8" type="griddist1"/>
    <trip arrivalPos="17.94" depart="72277" departPos="29.14" from="nt6_nt10" id="evening134_72000" to="nt13_np13" type="griddist1"/>
    <trip arrivalPos="73.34" depart="72278" departPos="57.70" from="nt6_nt10" id="evening135_72000" to="np11_nt14" type="griddist1"/>
    <trip arrivalPos="28.90" depart="72279" departPos="34.73" from="nt6_nt10" id="evening136_72000" to="nt2_np2" type="griddist1"/>
    <trip arrivalPos="61.66" depart="72279" departPos="62.78" from="nt6_nt10" id="evening137_72000" to="nt8_np6" type="griddist1"/>
    <trip arrivalPos="63.55" depart="72284" departPos="44.88" from="nt10_nt11" id="evening138_72000" to="nt13_np12" type="griddist1"/>
    <trip arrivalPos="4.81" depart="72287" departPos="111.39" from="nt7_nt6" id="evening139_72000" to="nt13_np12" type="griddist1"/>
    <trip arrivalPos="62.83" depart="72288" departPos="38.51" from="nt6_nt10" id="evening140_72000" to="nt2_np2" type="griddist1"/>
    <trip arrivalPos="1.66" depart="72293" departPos="125.38" from="nt6_nt10" id="evening141_72000" to="np3_nt3" type="griddist1"/>
    <trip arrivalPos="3.31" depart="72296" departPos="41.23" from="nt6_nt10" id="evening142_72000" to="nt13_np13" type="griddist1"/>
    <trip arrivalPos="57.98" depart="72299" departPos="19.28" from="nt7_nt6" id="evening143_72000" to="nt1_np1" type="griddist1"/>
    <trip arrivalPos="48.95" depart="72302" departPos="91.11" from="nt7_nt6" id="evening144_72000" to="np13_nt13" type="griddist1"/>
    <trip arrivalPos="56.77" depart="72303" departPos="40.51" from="nt10_nt11" id="evening145_72000" to="np7_nt12" type="griddist1"/>
    <trip arrivalPos="0.11" depart="72305" departPos="181.39" from="nt10_nt11" id="evening146_72000" to="np10_nt15" type="griddist1"/>
    <trip arrivalPos="9.63" depart="72305" departPos="162.80" from="nt11_nt7" id="evening147_72000" to="np6_nt8" type="griddist1"/>
    <trip arrivalPos="30.75" depart="72305" departPos="72.40" from="nt10_nt11" id="evening148_72000" to="np10_nt15" type="griddist1"/>
    <trip arrivalPos="8.80" depart="72311" departPos="146.70" from="nt10_nt11" id="evening149_72000" to="nt3_np3" type="griddist1"/>
    <trip arrivalPos="3.44" depart="72314" departPos="41.98" from="nt6_nt10" id="evening150_72000" to="np14_nt9" type="griddist1"/>
    <trip arrivalPos="13.66" depart="72314" departPos="77.91" from="nt11_nt7" id="evening151_72000" to="np11_nt14" type="griddist1"/>
    <trip arrivalPos="36.21" depart="72314" departPos="108.20" from="nt11_nt7" id="evening152_72000" to="nt15_np10" type="griddist1"/>
    <trip arrivalPos="4.17" depart="72316" departPos="70.07" from="nt11_nt7" id="evening153_72000" to="nt16_np9" type="griddist1"/>
    <trip arrivalPos="24.54" depart="72316" departPos="126.56" from="nt7_nt6" id="evening154_72000" to="np7_nt12" type="griddist1"/>
    <trip arrivalPos="10.78" depart="72317" departPos="128.06" from="nt6_nt10" id="evening155_72000" to="nt1_np16" type="griddist1"/>
    <trip arrivalPos="55.70" depart="72317" departPos="135.91" from="nt10_nt11" id="evening156_72000" to="np15_nt5" type="griddist1"/>
    <trip arrivalPos="18.08" depart="72324" departPos="67.52" from="nt7_nt6" id="evening157_72000" to="nt14_np11" type="griddist1"/>
    <trip arrivalPos="61.74" depart="72326" departPos="12.90" from="nt11_nt7" id="evening158_72000" to="nt2_np2" type="griddist1"/>
    <trip arrivalPos="33.15" depart="72330" departPos="122.49" from="nt6_nt10" id="evening159_72000" to="np16_nt1" type="griddist1"/>
    <trip arrivalPos="47.22" depart="72330" departPos="4.59" from="nt7_nt6" id="evening160_72000" to="np11_nt14" type="griddist1"/>
    <trip arrivalPos="55.72" depart="72334" departPos="122.99" from="nt7_nt6" id="evening161_72000" to="np8_nt16" type="griddist1"/>
    <trip arrivalPos="72.91" depart="72338" departPos="52.09" from="nt6_nt10" id="evening162_72000" to="np5_nt4" type="griddist1"/>
    <trip arrivalPos="19.69" depart="72340" departPos="130.55" from="nt10_nt11" id="evening163_72000" to="nt14_np11" type="griddist1"/>
    <trip arrivalPos="55.93" depart="72341" departPos="159.29" from="nt7_nt6" id="evening164_72000" to="nt8_np6" type="griddist1"/>
    <trip arrivalPos="44.65" depart="72342" departPos="11.85" from="nt7_nt6" id="evening165_72000" to="nt4_np5" type="griddist1"/>
    <trip arrivalPos="9.49" depart="72342" departPos="24.86" from="nt7_nt6" id="evening166_72000" to="nt4_np4" type="griddist1"/>
    <trip arrivalPos="51.08" depart="72343" departPos="66.66" from="nt7_nt6" id="evening167_72000" to="np4_nt4" type="griddist1"/>
    <trip arrivalPos="25.45" depart="72344" departPos="163.91" from="nt10_nt11" id="evening168_72000" to="np8_nt16" type="griddist1"/>
    <trip arrivalPos="52.78" depart="72346" departPos="156.42" from="nt7_nt6" id="evening169_72000" to="nt1_np16" type="griddist1"/>
    <trip arrivalPos="38.75" depart="72347" departPos="151.43" from="nt10_nt11" id="evening170_72000" to="nt2_np2" type="griddist1"/>
    <trip arrivalPos="2.07" depart="72347" departPos="107.85" from="nt11_nt7" id="evening171_72000" to="nt4_np4" type="griddist1"/>
    <trip arrivalPos="37.36" depart="72347" departPos="154.28" from="nt6_nt10" id="evening172_72000" to="np12_nt13" type="griddist1"/>
    <trip arrivalPos="12.06" depart="72347" departPos="49.38" from="nt11_nt7" id="evening173_72000" to="np14_nt9" type="griddist1"/>
    <trip arrivalPos="28.41" depart="72350" departPos="83.40" from="nt7_nt6" id="evening174_72000" to="np6_nt8" type="griddist1"/>
    <trip arrivalPos="58.20" depart="72353" departPos="57.48" from="nt11_nt7" id="evening175_72000" to="nt5_np15" type="griddist1"/>
    <trip arrivalPos="37.85" depart="72354" departPos="10.74" from="nt11_nt7" id="evening176_72000" to="np2_nt2" type="griddist1"/>
    <trip arrivalPos="24.23" depart="72359" departPos="49.38" from="nt11_nt7" id="evening177_72000" to="np1_nt1" type="griddist1"/>
    <trip arrivalPos="36.14" depart="72361" departPos="126.48" from="nt7_nt6" id="evening178_72000" to="np6_nt8" type="griddist1"/>
    <trip arrivalPos="3.16" depart="72364" departPos="139.31" from="nt7_nt6" id="evening179_72000" to="np2_nt2" type="griddist1"/>
    <trip arrivalPos="6.86" depart="72366" departPos="22.82" from="nt6_nt10" id="evening180_72000" to="nt4_np5" type="griddist1"/>
    <trip arrivalPos="73.92" depart="72368" departPos="116.75" from="nt11_nt7" id="evening181_72000" to="nt8_np6" type="griddist1"/>
    <trip arrivalPos="35.83" depart="72370" departPos="130.92" from="nt11_nt7" id="evening182_72000" to="nt16_np8" type="griddist1"/>
    <trip arrivalPos="29.89" depart="72370" departPos="169.22" from="nt7_nt6" id="evening183_72000" to="np13_nt13" type="griddist1"/>
    <trip arrivalPos="71.10" depart="72371" departPos="149.94" from="nt10_nt11" id="evening184_72000" to="nt12_np7" type="griddist1"/>
    <trip arrivalPos="2.58" depart="72373" departPos="24.17" from="nt11_nt7" id="evening185_72000" to="nt16_np8" type="griddist1"/>
    <trip arrivalPos="60.48" depart="72373" departPos="145.53" from="nt7_nt6" id="evening186_72000" to="nt14_np11" type="griddist1"/>
    <trip arrivalPos="25.14" depart="72376" departPos="168.44" from="nt11_nt7" id="evening187_72000" to="nt14_np11" type="griddist1"/>
    <trip arrivalPos="53.23" depart="72376" departPos="119.52" from="nt11_nt7" id="evening188_72000" to="nt16_np8" type="griddist1"/>
    <trip arrivalPos="36.29" depart="72377" departPos="52.55" from="nt11_nt7" id="evening189_72000" to="nt14_np11" type="griddist1"/>
    <trip arrivalPos="3.14" depart="72379" departPos="55.71" from="nt10_nt11" id="evening190_72000" to="np4_nt4" type="griddist1"/>
    <trip arrivalPos="17.43" depart="72380" departPos="167.95" from="nt7_nt6" id="evening191_72000" to="np12_nt13" type="griddist1"/>
    <trip arrivalPos="14.41" depart="72384" departPos="66.26" from="nt7_nt6" id="evening192_72000" to="nt1_np16" type="griddist1"/>
    <trip arrivalPos="54.24" depart="72385" departPos="122.35" from="nt7_nt6" id="evening193_72000" to="nt5_np15" type="griddist1"/>
    <trip arrivalPos="55.27" depart="72386" departPos="16.08" from="nt6_nt10" id="evening194_72000" to="np12_nt13" type="griddist1"/>
    <trip arrivalPos="50.88" depart="72387" departPos="10.02" from="nt7_nt6" id="evening195_72000" to="np2_nt2" type="griddist1"/>
    <trip arrivalPos="21.61" depart="72389" departPos="153.55" from="nt10_nt11" id="evening196_72000" to="np1_nt1" type="griddist1"/>
    <trip arrivalPos="54.30" depart="72392" departPos="181.46" from="nt10_nt11" id="evening197_72000" to="np1_nt1" type="griddist1"/>
    <trip arrivalPos="73.70" depart="72393" departPos="12.50" from="nt7_nt6" id="evening198_72000" to="np10_nt15" type="griddist1"/>
    <trip arrivalPos="63.57" depart="72395" departPos="143.47" from="nt6_nt10" id="evening199_72000" to="nt5_np15" type="griddist1"/>
    <trip arrivalPos="62.11" depart="72398" departPos="138.11" from="nt11_nt7" id="evening200_72000" to="nt14_np11" type="griddist1"/>
    <trip arrivalPos="60.25" depart="72398" departPos="119.11" from="nt10_nt11" id="evening201_72000" to="nt1_np1" type="griddist1"/>
    <trip arrivalPos="57.60" depart="72399" departPos="19.93" from="nt7_nt6" id="evening202_72000" to="np15_nt5" type="griddist1"/>
    <trip arrivalPos="72.95" depart="72400" departPos="65.97" from="nt10_nt11" id="evening203_72000" to="np12_nt13" type="griddist1"/>
    <trip arrivalPos="5.76" depart="72404" departPos="7.48" from="nt7_nt6" id="evening204_72000" to="np8_nt16" type="griddist1"/>
    <trip arrivalPos="29.48" depart="72404" departPos="130.37" from="nt6_nt10" id="evening205_72000" to="nt1_np1" type="griddist1"/>
    <trip arrivalPos="31.52" depart="72407" departPos="35.94" from="nt11_nt7" id="evening206_72000" to="nt3_np3" type="griddist1"/>
    <trip arrivalPos="44.92" depart="72409" departPos="116.89" from="nt10_nt11" id="evening207_72000" to="np11_nt14" type="griddist1"/>
    <trip arrivalPos="52.68" depart="72410" departPos="29.35" from="nt7_nt6" id="evening208_72000" to="nt14_np11" type="griddist1"/>
    <trip arrivalPos="2.91" depart="72410" departPos="55.88" from="nt10_nt11" id="evening209_72000" to="nt13_np13" type="griddist1"/>
    <trip arrivalPos="40.93" depart="72411" departPos="99.12" from="nt6_nt10" id="evening210_72000" to="nt4_np4" type="griddist1"/>
    <trip arrivalPos="29.81" depart="72412" departPos="145.50" from="nt6_nt10" id="evening211_72000" to="nt13_np12" type="griddist1"/>
    <trip arrivalPos="14.19" depart="72413" departPos="30.90" from="nt11_nt7" id="evening212_72000" to="nt3_np3" type="griddist1"/>
    <trip arrivalPos="49.12" depart="72414" departPos="55.48" from="nt10_nt11" id="evening213_72000" to="nt16_np9" type="griddist1"/>
    <trip arrivalPos="6.68" depart="72415" departPos="48.81" from="nt10_nt11" id="evening214_72000" to="np11_nt14" type="griddist1"/>
    <trip arrivalPos="29.31" depart="72416" departPos="24.33" from="nt6_nt10" id="evening215_72000" to="nt2_np2" type="griddist1"/>
    <trip arrivalPos="16.45" depart="72423" departPos="151.13" from="nt11_nt7" id="evening216_72000" to="np10_nt15" type="griddist1"/>
    <trip arrivalPos="74.52" depart="72436" departPos="91.29" from="nt11_nt7" id="evening217_72000" to="np10_nt15" type="griddist1"/>
    <trip arrivalPos="21.55" depart="72437" departPos="48.67" from="nt10_nt11" id="evening218_72000" to="nt13_np13" type="griddist1"/>
    <trip arrivalPos="52.83" depart="72437" departPos="104.86" from="nt6_nt10" id="evening219_72000" to="np13_nt13" type="griddist1"/>
    <trip arrivalPos="12.57" depart="72438" departPos="165.32" from="nt7_nt6" id="evening220_72000" to="nt16_np9" type="griddist1"/>
    <trip arrivalPos="55.04" depart="72439" departPos="130.82" from="nt6_nt10" id="evening221_72000" to="nt13_np13" type="griddist1"/>
    <trip arrivalPos="4.95" depart="72439" departPos="42.54" from="nt10_nt11" id="evening222_72000" to="nt15_np10" type="griddist1"/>
    <trip arrivalPos="64.29" depart="72442" departPos="120.98" from="nt6_nt10" id="evening223_72000" to="np3_nt3" type="griddist1"/>
    <trip arrivalPos="33.31" depart="72442" departPos="106.60" from="nt7_nt6" id="evening224_72000" to="nt12_np7" type="griddist1"/>
    <trip arrivalPos="50.81" depart="72449" departPos="147.66" from="nt11_nt7" id="evening225_72000" to="np4_nt4" type="griddist1"/>