<routes>
    <trip arrivalPos="40.36" depart="61200" departPos="14.15" from="nt6_nt10" id="evening0_61200" to="np4_nt4" type="griddist1"/>
    <trip arrivalPos="43.15" depart="61202" departPos="52.86" from="nt10_nt11" id="evening1_61200" to="np2_nt2" type="griddist1"/>
    <trip arrivalPos="0.13" depart="61204" departPos="162.01" from="nt7_nt6" id="evening2_61200" to="np11_nt14" type="griddist1"/>
    <trip arrivalPos="65.62" depart="61204" departPos="139.00" from="nt11_nt7" id="evening3_61200" to="nt16_np9" type="griddist1"/>
    <trip arrivalPos="46.86" depart="61206" departPos="10.12" from="nt6_nt10" id="evening4_61200" to="np10_nt15" type="griddist1"/>
    <trip arrivalPos="23.46" depart="61212" departPos="102.09" from="nt11_nt7" id="evening5_61200" to="nt16_np9" type="griddist1"/>
    <trip arrivalPos="49.09" depart="61212" departPos="21.29" from="nt7_nt6" id="evening6_61200" to="np13_nt13" type="griddist1"/>
    <trip arrivalPos="46.68" depart="61213" departPos="60.04" from="nt6_nt10" id="evening7_61200" to="np1_nt1" type="griddist1"/>
    <trip arrivalPos="17.03" depart="61215" departPos="71.71" from="nt10_nt11" id="evening8_61200" to="nt13_np13" type="griddist1"/>
    <trip arrivalPos="62.29" depart="61216" departPos="152.18" from="nt7_nt6" id="evening9_61200" to="np2_nt2" type="griddist1"/>
    <trip arrivalPos="11.88" depart="61217" departPos="24.93" from="nt11_nt7" id="evening10_61200" to="np6_nt8" type="griddist1"/>
    <trip arrivalPos="13.81" depart="61221" departPos="174.97" from="nt7_nt6" id="evening11_61200" to="nt12_np7" type="griddist1"/>
    <trip arrivalPos="31.54" depart="61226" departPos="66.77" from="nt10_nt11" id="evening12_61200" to="np9_nt16" type="griddist1"/>
    <trip arrivalPos="62.57" depart="61228" departPos="119.78" from="nt10_nt11" id="evening13_61200" to="np8_nt16" type="griddist1"/>
    <trip arrivalPos="37.22" depart="61231" departPos="133.49" from="nt10_nt11" id="evening14_61200" to="nt2_np2" type="griddist1"/>
    <trip arrivalPos="51.79" depart="61231" departPos="119.82" from="nt10_nt11" id="evening15_61200" to="np15_nt5" type="griddist1"/>
    <trip arrivalPos="26.94" depart="61231" departPos="134.90" from="nt6_nt10" id="evening16_61200" to="nt1_np16" type="griddist1"/>
    <trip arrivalPos="49.64" depart="61236" departPos="81.87" from="nt6_nt10" id="evening17_61200" to="nt15_np10" type="griddist1"/>
    <trip arrivalPos="24.43" depart="61245" departPos="41.88" from="nt10_nt11" id="evening18_61200" to="nt13_np12" type="griddist1"/>
    <trip arrivalPos="23.55" depart="61246" departPos="31.53" from="nt11_nt7" id="evening19_61200" to="np13_nt13" type="griddist1"/>
    <trip arrivalPos="23.51" depart="61248" departPos="76.52" from="nt10_nt11" id="evening20_61200" to="nt2_np2" type="griddist1"/>
    <trip arrivalPos="54.92" depart="61252" departPos="98.71" from="nt11_nt7" id="evening21_61200" to="nt4_np5" type="griddist1"/>
    <trip arrivalPos="22.04" depart="61253" departPos="147.94" from="nt7_nt6" id="evening22_61200" to="np14_nt9" type="griddist1"/>
    <trip arrivalPos="14.00" depart="61253" departPos="76.29" from="nt6_nt10" id="evening23_61200" to="np14_nt9" type="griddist1"/>
    <trip arrivalPos="24.08" depart="61257" departPos="2.44" from="nt10_nt11" id="evening24_61200" to="np8_nt16" type="griddist1"/>
    <trip arrivalPos="12.51" depart="61257" departPos="48.36" from="nt6_nt10" id="evening25_61200" to="np16_nt1" type="griddist1"/>
    <trip arrivalPos="0.50" depart="61258" departPos="55.33" from="nt11_nt7" id="evening26_61200" to="np5_nt4" type="griddist1"/>
    <trip arrivalPos="5.27" depart="61261" departPos="94.84" from="nt11_nt7" id="evening27_61200" to="np13_nt13" type="griddist1"/>
    <trip arrivalPos="38.40" depart="61261" departPos="33.78" from="nt11_nt7" id="evening28_61200" to="np14_nt9" type="griddist1"/>
    <trip arrivalPos="18.34" depart="61266" departPos="30.42" from="nt10_nt11" id="evening29_61200" to="np4_nt4" type="griddist1"/>
    <trip arrivalPos="25.73" depart="61271" departPos="157.77" from="nt6_nt10" id="evening30_61200" to="nt1_np1" type="griddist1"/>
    <trip arrivalPos="60.67" depart="61272" departPos="84.45" from="nt10_nt11" id="evening31_61200" to="np12_nt13" type="griddist1"/>
    <trip arrivalPos="23.08" depart="61274" departPos="68.03" from="nt10_nt11" id="evening32_61200" to="nt2_np2" type="griddist1"/>
    <trip arrivalPos="53.95" depart="61275" departPos="177.12" from="nt11_nt7" id="evening33_61200" to="np4_nt4" type="griddist1"/>
    <trip arrivalPos="42.51" depart="61276" departPos="39.81" from="nt6_nt10" id="evening34_61200" to="np6_nt8" type="griddist1"/>
    <trip arrivalPos="51.06" depart="61276" departPos="57.42" from="nt10_nt11" id="evening35_61200" to="np9_nt16" type="griddist1"/>
    <trip arrivalPos="35.81" depart="61276" departPos="17.07" from="nt6_nt10" id="evening36_61200" to="nt16_np8" type="griddist1"/>
    <trip arrivalPos="45.04" depart="61279" departPos="5.50" from="nt10_nt11" id="evening37_61200" to="nt4_np4" type="griddist1"/>
    <trip arrivalPos="1.91" depart="61281" departPos="13.31" from="nt10_nt11" id="evening38_61200" to="nt1_np16" type="griddist1"/>
    <trip arrivalPos="36.77" depart="61284" departPos="35.96" from="nt10_nt11" id="evening39_61200" to="nt8_np6" type="griddist1"/>
    <trip arrivalPos="38.03" depart="61284" departPos="131.22" from="nt7_nt6" id="evening40_61200" to="np2_nt2" type="griddist1"/>
    <trip arrivalPos="63.69" depart="61285" departPos="70.57" from="nt11_nt7" id="evening41_61200" to="np1_nt1" type="griddist1"/>
    <trip arrivalPos="8.55" depart="61285" departPos="54.23" from="nt10_nt11" id="evening42_61200" to="nt15_np10" type="griddist1"/>
    <trip arrivalPos="19.78" depart="61285" departPos="33.18" from="nt10_nt11" id="evening43_61200" to="np14_nt9" type="griddist1"/>
    <trip arrivalPos="32.53" depart="61287" departPos="54.35" from="nt6_nt10" id="evening44_61200" to="np4_nt4" type="griddist1"/>
    <trip arrivalPos="1.20" depart="61290" departPos="77.60" from="nt11_nt7" id="evening45_61200" to="nt8_np6" type="griddist1"/>
    <trip arrivalPos="44.30" depart="61291" departPos="59.82" from="nt10_nt11" id="evening46_61200" to="nt4_np5" type="griddist1"/>
    <trip arrivalPos="25.93" depart="61294" departPos="177.29" from="nt7_nt6" id="evening47_61200" to="np14_nt9" type="griddist1"/>
    <trip arrivalPos="21.87" depart="61295" departPos="149.56" from="nt7_nt6" id="evening48_61200" to="np2_nt2" type="griddist1"/>
    <trip arrivalPos="35.57" depart="61298" departPos="176.33" from="nt11_nt7" id="evening49_61200" to="nt13_np13" type="griddist1"/>
    <trip arrivalPos="44.54" depart="61301" departPos="65.30" from="nt10_nt11" id="evening50_61200" to="np8_nt16" type="griddist1"/>
    <trip arrivalPos="63.97" depart="61303" departPos="139.80" from="nt10_nt11" id="evening51_61200" to="nt1_np16" type="griddist1"/>
    <trip arrivalPos="65.97" depart="61304" departPos="23.98" from="nt7_nt6" id="evening52_61200" to="np14_nt9" type="griddist1"/>
    <trip arrivalPos="5.84" depart="61305" departPos="17.42" from="nt6_nt10" id="evening53_61200" to="np7_nt12" type="griddist1"/>
    <trip arrivalPos="44.52" depart="61306" departPos="10.84" from="nt10_nt11" id="evening54_61200" to="np10_nt15" type="griddist1"/>
    <trip arrivalPos="5.94" depart="61307" departPos="152.53" from="nt6_nt10" id="evening55_61200" to="nt2_np2" type="griddist1"/>
    <trip arrivalPos="51.80" depart="61312" departPos="112.16" from="nt11_nt7" id="evening56_61200" to="nt13_np12" type="griddist1"/>
    <trip arrivalPos="61.16" depart="61312" departPos="114.02" from="nt10_nt11" id="evening57_61200" to="nt13_np13" type="griddist1"/>
    <trip arrivalPos="57.44" depart="61313" departPos="141.32" from="nt6_nt10" id="evening58_61200" to="nt1_np1" type="griddist1"/>
    <trip arrivalPos="19.50" depart="61314" departPos="20.48" from="nt11_nt7" id="evening59_61200" to="np4_nt4" type="griddist1"/>
    <trip arrivalPos="71.01" depart="61314" departPos="3.35" from="nt10_nt11" id="evening60_61200" to="np5_nt4" type="griddist1"/>
    <trip arrivalPos="58.56" depart="61317" departPos="95.11" from="nt11_nt7" id="evening61_61200" to="nt8_np6" type="griddist1"/>
    <trip arrivalPos="2.78" depart="61326" departPos="35.39" from="nt7_nt6" id="evening62_61200" to="np16_nt1" type="griddist1"/>
    <trip arrivalPos="57.59" depart="61327" departPos="153.99" from="nt6_nt10" id="evening63_61200" to="np8_nt16" type="griddist1"/>
    <trip arrivalPos="33.43" depart="61328" departPos="70.82" from="nt11_nt7" id="evening64_61200" to="np13_nt13" type="griddist1"/>
    <trip arrivalPos="2.40" depart="61329" departPos="52.16" from="nt11_nt7" id="evening65_61200" to="np14_nt9" type="griddist1"/>
    <trip arrivalPos="24.42" depart="61329" departPos="163.80" from="nt6_nt10" id="evening66_61200" to="np7_nt12" type="griddist1"/>
    <trip arrivalPos="61.92" depart="61333" departPos="61.24" from="nt7_nt6" id="evening67_61200" to="nt5_np15" type="griddist1"/>
    <trip arrivalPos="35.48" depart="61335" departPos="81.49" from="nt7_nt6" id="evening68_61200" to="nt13_np12" type="griddist1"/>
    <trip arrivalPos="16.18" depart="61339" departPos="26.11" from="nt6_nt10" id="evening69_61200" to="np3_nt3" type="griddist1"/>
    <trip arrivalPos="37.18" depart="61342" departPos="14.50" from="nt6_nt10" id="evening70_61200" to="nt16_np9" type="griddist1"/>
    <trip arrivalPos="35.18" depart="61345" departPos="7.55" from="nt11_nt7" id="evening71_61200" to="np8_nt16" type="griddist1"/>
    <trip arrivalPos="74.62" depart="61346" departPos="61.49" from="nt11_nt7" id="evening72_61200" to="nt15_np10" type="griddist1"/>
    <trip arrivalPos="19.14" depart="61347" departPos="134.85" from="nt10_nt11" id="evening73_61200" to="np4_nt4" type="griddist1"/>
    <trip arrivalPos="45.75" depart="61347" departPos="123.83" from="nt10_nt11" id="evening74_61200" to="nt13_np13" type="griddist1"/>
    <trip arrivalPos="29.80" depart="61348" departPos="4.80" from="nt7_nt6" id="evening75_61200" to="np3_nt3" type="griddist1"/>
    <trip arrivalPos="62.61" depart="61350" departPos="167.69" from="nt6_nt10" id="evening76_61200" to="np16_nt1" type="griddist1"/>
    <trip arrivalPos="68.34" depart="61350" departPos="17.57" from="nt7_nt6" id="evening77_61200" to="nt7_nt6" type="griddist1"/>
    <trip arrivalPos="30.84" depart="61352" departPos="179.00" from="nt6_nt10" id="evening78_61200" to="np14_nt9" type="griddist1"/>
    <trip arrivalPos="46.90" depart="61357" departPos="109.85" from="nt6_nt10" id="evening79_61200" to="nt4_np4" type="griddist1"/>
    <trip arrivalPos="62.54" depart="61358" departPos="54.10" from="nt7_nt6" id="evening80_61200" to="nt1_np16" type="griddist1"/>
    <trip arrivalPos="22.77" depart="61359" departPos="161.93" from="nt6_nt10" id="evening81_61200" to="np14_nt9" type="griddist1"/>
    <trip arrivalPos="16.52" depart="61359" departPos="62.21" from="nt6_nt10" id="evening82_61200" to="np1_nt1" type="griddist1"/>
    <trip arrivalPos="51.67" depart="61367" departPos="45.32" from="nt11_nt7" id="evening83_61200" to="nt15_np10" type="griddist1"/>
    <trip arrivalPos="31.66" depart="61368" departPos="27.73" from="nt6_nt10" id="evening84_61200" to="np4_nt4" type="griddist1"/>
    <trip arrivalPos="48.60" depart="61370" departPos="146.28" from="nt11_nt7" id="evening85_61200" to="np1_nt1" type="griddist1"/>
    <trip arrivalPos="58.29" depart="61372" departPos="95.62" from="nt10_nt11" id="evening86_61200" to="np2_nt2" type="griddist1"/>
    <trip arrivalPos="4.66" depart="61373" departPos="70.89" from="nt10_nt11" id="evening87_61200" to="np13_nt13" type="griddist1"/>
    <trip arrivalPos="37.37" depart="61373" departPos="68.65" from="nt11_nt7" id="evening88_61200" to="nt3_np3" type="griddist1"/>
    <trip arrivalPos="30.09" depart="61376" departPos="68.64" from="nt11_nt7" id="evening89_61200" to="nt15_np10" type="griddist1"/>
    <trip arrivalPos="68.74" depart="61379" departPos="114.85" from="nt10_nt11" id="evening90_61200" to="np7_nt12" type="griddist1"/>
    <trip arrivalPos="55.19" depart="61385" departPos="20.45" from="nt6_nt10" id="evening91_61200" to="np5_nt4" type="griddist1"/>
    <trip arrivalPos="26.43" depart="61389" departPos="121.55" from="nt7_nt6" id="evening92_61200" to="nt15_np10" type="griddist1"/>
    <trip arrivalPos="22.08" depart="61389" departPos="0.24" from="nt7_nt6" id="evening93_61200" to="np7_nt12" type="griddist1"/>
    <trip arrivalPos="34.88" depart="61391" departPos="66.03" from="nt10_nt11" id="evening94_61200" to="nt13_np12" type="griddist1"/>
    <trip arrivalPos="9.02" depart="61391" departPos="2.63" from="nt11_nt7" id="evening95_61200" to="nt1_np1" type="griddist1"/>
    <trip arrivalPos="43.82" depart="61391" departPos="65.20" from="nt10_nt11" id="evening96_61200" to="nt2_np2" type="griddist1"/>
    <trip arrivalPos="33.46" depart="61395" departPos="141.26" from="nt11_nt7" id="evening97_61200" to="nt16_np9" type="griddist1"/>
    <trip arrivalPos="6.01" depart="61401" departPos="158.44" from="nt6_nt10" id="evening98_61200" to="np14_nt9" type="griddist1"/>
    <trip arrivalPos="7.31" depart="61401" departPos="101.86" from="nt7_nt6" id="evening99_61200" to="nt9_np14" type="griddist1"/>
    <trip arrivalPos="45.88" depart="61404" departPos="102.31" from="nt10_nt11" id="evening100_61200" to="np3_nt3" type="griddist1"/>
    <trip arrivalPos="44.14" depart="61408" departPos="17.20" from="nt7_nt6" id="evening101_61200" to="np10_nt15" type="griddist1"/>
    <trip arrivalPos="44.84" depart="61411" departPos="34.00" from="nt7_nt6" id="evening102_61200" to="nt9_np14" type="griddist1"/>
    <trip arrivalPos="26.01" depart="61412" departPos="69.41" from="nt10_nt11" id="evening103_61200" to="nt3_np3" type="griddist1"/>
    <trip arrivalPos="68.16" depart="61412" departPos="130.69" from="nt6_nt10" id="evening104_61200" to="np7_nt12" type="griddist1"/>
    <trip arrivalPos="8.22" depart="61414" departPos="83.39" from="nt6_nt10" id="evening105_61200" to="nt1_np1" type="griddist1"/>
    <trip arrivalPos="23.83" depart="61415" departPos="17.34" from="nt11_nt7" id="evening106_61200" to="np16_nt1" type="griddist1"/>
    <trip arrivalPos="45.11" depart="61416" departPos="131.39" from="nt10_nt11" id="evening107_61200" to="np1_nt1" type="griddist1"/>
    <trip arrivalPos="1.22" depart="61422" departPos="58.21" from="nt10_nt11" id="evening108_61200" to="np11_nt14" type="griddist1"/>
    <trip arrivalPos="42.96" depart="61425" departPos="167.36" from="nt10_nt11" id="evening109_61200" to="np5_nt4" type="griddist1"/>
    <trip arrivalPos="9.56" depart="61428" departPos="98.22" from="nt7_nt6" id="evening110_61200" to="nt13_np13" type="griddist1"/>
    <trip arrivalPos="6.26" depart="61431" departPos="175.52" from="nt10_nt11" id="evening111_61200" to="nt13_np13" type="griddist1"/>
    <trip arrivalPos="32.77" depart="61435" departPos="3.84" from="nt7_nt6" id="evening112_61200" to="np14_nt9" type="griddist1"/>
    <trip arrivalPos="58.59" depart="61435" departPos="115.10" from="nt7_nt6" id="evening113_61200" to="nt15_np10" type="griddist1"/>
    <trip arrivalPos="8.36" depart="61436" departPos="50.80" from="nt11_nt7" id="evening114_61200" to="np4_nt4" type="griddist1"/>
    <trip arrivalPos="36.72" depart="61440" departPos="105.45" from="nt6_nt10" id="evening115_61200" to="np12_nt13" type="griddist1"/>
    <trip arrivalPos="73.72" depart="61442" departPos="171.77" from="nt10_nt11" id="evening116_61200" to="nt15_np10" type="griddist1"/>
    <trip arrivalPos="15.89" depart="61443" departPos="156.49" from="nt11_nt7" id="evening117_61200" to="np4_nt4" type="griddist1"/>
    <trip arrivalPos="5.76" depart="61443" departPos="69.00" from="nt10_nt11" id="evening118_61200" to="np14_nt9" type="griddist1"/>
    <trip arrivalPos="69.13" depart="61445" departPos="91.99" from="nt6_nt10" id="evening119_61200" to="nt14_np11" type="griddist1"/>
    <trip arrivalPos="72.61" depart="61450" departPos="67.51" from="nt11_nt7" id="evening120_61200" to="np10_nt15" type="griddist1"/>
    <trip arrivalPos="55.26" depart="61451" departPos="67.97" from="nt11_nt7" id="evening121_61200" to="np16_nt1" type="griddist1"/>
    <trip arrivalPos="15.27" depart="61452" departPos="13.01" from="nt11_nt7" id="evening122_61200" to="nt16_np8" type="griddist1"/>
    <trip arrivalPos="33.79" depart="61455" departPos="24.86" from="nt10_nt11" id="evening123_61200" to="nt15_np10" type="griddist1"/>
    <trip arrivalPos="25.41" depart="61456" departPos="131.20" from="nt11_nt7" id="evening124_61200" to="nt1_np1" type="griddist1"/>
    <trip arrivalPos="64.54" depart="61457" departPos="48.80" from="nt7_nt6" id="evening125_61200" to="np6_nt8" type="griddist1"/>
    <trip arrivalPos="44.31" depart="61459" departPos="163.88" from="nt6_nt10" id="evening126_61200" to="nt8_np6" type="griddist1"/>
    <trip arrivalPos="63.60" depart="61460" departPos="146.52" from="nt11_nt7" id="evening127_61200" to="nt16_np9" type="griddist1"/>
    <trip arrivalPos="65.48" depart="61465" departPos="51.32" from="nt11_nt7" id="evening128_61200" to="np15_nt5" type="griddist1"/>
    <trip arrivalPos="11.14" depart="61466" departPos="41.18" from="nt11_nt7" id="evening129_61200" to="np1_nt1" type="griddist1"/>
    <trip arrivalPos="33.35" depart="61469" departPos="84.88" from="nt7_nt6" id="evening130_61200" to="np13_nt13" type="griddist1"/>
    <trip arrivalPos="65.25" depart="61474" departPos="100.02" from="nt11_nt7" id="evening131_61200" to="nt16_np9" type="griddist1"/>
    <trip arrivalPos="44.42" depart="61476" departPos="73.01" from="nt10_nt11" id="evening132_61200" to="np12_nt13" type="griddist1"/>
    <trip arrivalPos="30.54" depart="61477" departPos="52.55" from="nt6_nt10" id="evening133_61200" to="np6_nt8" type="griddist1"/>
    <trip arrivalPos="17.94" depart="61477" departPos="29.14" from="nt6_nt10" id="evening134_61200" to="nt13_np13" type="griddist1"/>
    <trip arrivalPos="73.34" depart="61478" departPos="57.70" from="nt6_nt10" id="evening135_61200" to="np11_nt14" type="griddist1"/>
    <trip arrivalPos="28.90" depart="61479" departPos="34.73" from="nt6_nt10" id="evening136_61200" to="nt2_np2" type="griddist1"/>
    <trip arrivalPos="61.66" depart="61479" departPos="62.78" from="nt6_nt10" id="evening137_61200" to="nt8_np6" type="griddist1"/>
    <trip arrivalPos="63.55" depart="61484" departPos="44.88" from="nt10_nt11" id="evening138_61200" to="nt13_np12" type="griddist1"/>
    <trip arrivalPos="4.81" depart="61487" departPos="111.39" from="nt7_nt6" id="evening139_61200" to="nt13_np12" type="griddist1"/>
    <trip arrivalPos="62.83" depart="61488" departPos="38.51" from="nt6_nt10" id="evening140_61200" to="nt2_np2" type="griddist1"/>
    <trip arrivalPos="1.66" depart="61493" departPos="125.38" from="nt6_nt10" id="evening141_61200" to="np3_nt3" type="griddist1"/>
    <trip arrivalPos="3.31" depart="61496" departPos="41.23" from="nt6_nt10" id="evening142_61200" to="nt13_np13" type="griddist1"/>
    <trip arrivalPos="57.98" depart="61499" departPos="19.28" from="nt7_nt6" id="evening143_61200" to="nt1_np1" type="griddist1"/>
    <trip arrivalPos="48.95" depart="61502" departPos="91.11" from="nt7_nt6" id="evening144_61200" to="np13_nt13" type="griddist1"/>
    <trip arrivalPos="56.77" depart="61503" departPos="40.51" from="nt10_nt11" id="evening145_61200" to="np7_nt12" type="griddist1"/>
    <trip arrivalPos="0.11" depart="61505" departPos="181.39" from="nt10_nt11" id="evening146_61200" to="np10_nt15" type="griddist1"/>
    <trip arrivalPos="9.63" depart="61505" departPos="162.80" from="nt11_nt7" id="evening147_61200" to="np6_nt8" type="griddist1"/>
    <trip arrivalPos="30.75" depart="61505" departPos="72.40" from="nt10_nt11" id="evening148_61200" to="np10_nt15" type="griddist1"/>
    <trip arrivalPos="8.80" depart="61511" departPos="146.70" from="nt10_nt11" id="evening149_61200" to="nt3_np3" type="griddist1"/>
    <trip arrivalPos="3.44" depart="61514" departPos="41.98" from="nt6_nt10" id="evening150_61200" to="np14_nt9" type="griddist1"/>
    <trip arrivalPos="13.66" depart="61514" departPos="77.91" from="nt11_nt7" id="evening151_61200" to="np11_nt14" type="griddist1"/>
    <trip arrivalPos="36.21" depart="61514" departPos="108.20" from="nt11_nt7" id="evening152_61200" to="nt15_np10" type="griddist1"/>
    <trip arrivalPos="4.17" depart="61516" departPos="70.07" from="nt11_nt7" id="evening153_61200" to="nt16_np9" type="griddist1"/>
    <trip arrivalPos="24.54" depart="61516" departPos="126.56" from="nt7_nt6" id="evening154_61200" to="np7_nt12" type="griddist1"/>
    <trip arrivalPos="10.78" depart="61517" departPos="128.06" from="nt6_nt10" id="evening155_61200" to="nt1_np16" type="griddist1"/>
    <trip arrivalPos="55.70" depart="61517" departPos="135.91" from="nt10_nt11" id="evening156_61200" to="np15_nt5" type="griddist1"/>
    <trip arrivalPos="18.08" depart="61524" departPos="67.52" from="nt7_nt6" id="evening157_61200" to="nt14_np11" type="griddist1"/>
    <trip arrivalPos="61.74" depart="61526" departPos="12.90" from="nt11_nt7" id="evening158_61200" to="nt2_np2" type="griddist1"/>
    <trip arrivalPos="33.15" depart="61530" departPos="122.49" from="nt6_nt10" id="evening159_61200" to="np16_nt1" type="griddist1"/>
    <trip arrivalPos="47.22" depart="61530" departPos="4.59" from="nt7_nt6" id="evening160_61200" to="np11_nt14" type="griddist1"/>
    <trip arrivalPos="55.72" depart="61534" departPos="122.99" from="nt7_nt6" id="evening161_61200" to="np8_nt16" type="griddist1"/>
    <trip arrivalPos="72.91" depart="61538" departPos="52.09" from="nt6_nt10" id="evening162_61200" to="np5_nt4" type="griddist1"/>
    <trip arrivalPos="19.69" depart="61540" departPos="130.55" from="nt10_nt11" id="evening163_61200" to="nt14_np11" type="griddist1"/>
    <trip arrivalPos="55.93" depart="61541" departPos="159.29" from="nt7_nt6" id="evening164_61200" to="nt8_np6" type="griddist1"/>
    <trip arrivalPos="44.65" depart="61542" departPos="11.85" from="nt7_nt6" id="evening165_61200" to="nt4_np5" type="griddist1"/>
    <trip arrivalPos="9.49" depart="61542" departPos="24.86" from="nt7_nt6" id="evening166_61200" to="nt4_np4" type="griddist1"/>
    <trip arrivalPos="51.08" depart="61543" departPos="66.66" from="nt7_nt6" id="evening167_61200" to="np4_nt4" type="griddist1"/>
    <trip arrivalPos="25.45" depart="61544" departPos="163.91" from="nt10_nt11" id="evening168_61200" to="np8_nt16" type="griddist1"/>
    <trip arrivalPos="52.78" depart="61546" departPos="156.42" from="nt7_nt6" id="evening169_61200" to="nt1_np16" type="griddist1"/>
    <trip arrivalPos="38.75" depart="61547" departPos="151.43" from="nt10_nt11" id="evening170_61200" to="nt2_np2" type="griddist1"/>
    <trip arrivalPos="2.07" depart="61547" departPos="107.85" from="nt11_nt7" id="evening171_61200" to="nt4_np4" type="griddist1"/>
    <trip arrivalPos="37.36" depart="61547" departPos="154.28" from="nt6_nt10" id="evening172_61200" to="np12_nt13" type="griddist1"/>
    <trip arrivalPos="12.06" depart="61547" departPos="49.38" from="nt11_nt7" id="evening173_61200" to="np14_nt9" type="griddist1"/>
    <trip arrivalPos="28.41" depart="61550" departPos="83.40" from="nt7_nt6" id="evening174_61200" to="np6_nt8" type="griddist1"/>
    <trip arrivalPos="58.20" depart="61553" departPos="57.48" from="nt11_nt7" id="evening175_61200" to="nt5_np15" type="griddist1"/>
    <trip arrivalPos="37.85" depart="61554" departPos="10.74" from="nt11_nt7" id="evening176_61200" to="np2_nt2" type="griddist1"/>
    <trip arrivalPos="24.23" depart="61559" departPos="49.38" from="nt11_nt7" id="evening177_61200" to="np1_nt1" type="griddist1"/>
    <trip arrivalPos="36.14" depart="61561" departPos="126.48" from="nt7_nt6" id="evening178_61200" to="np6_nt8" type="griddist1"/>
    <trip arrivalPos="3.16" depart="61564" departPos="139.31" from="nt7_nt6" id="evening179_61200" to="np2_nt2" type="griddist1"/>
    <trip arrivalPos="6.86" depart="61566" departPos="22.82" from="nt6_nt10" id="evening180_61200" to="nt4_np5" type="griddist1"/>
    <trip arrivalPos="73.92" depart="61568" departPos="116.75" from="nt11_nt7" id="evening181_61200" to="nt8_np6" type="griddist1"/>
    <trip arrivalPos="35.83" depart="61570" departPos="130.92" from="nt11_nt7" id="evening182_61200" to="nt16_np8" type="griddist1"/>
    <trip arrivalPos="29.89" depart="61570" departPos="169.22" from="nt7_nt6" id="evening183_61200" to="np13_nt13" type="griddist1"/>
    <trip arrivalPos="71.10" depart="61571" departPos="149.94" from="nt10_nt11" id="evening184_61200" to="nt12_np7" type="griddist1"/>
    <trip arrivalPos="2.58" depart="61573" departPos="24.17" from="nt11_nt7" id="evening185_61200" to="nt16_np8" type="griddist1"/>
    <trip arrivalPos="60.48" depart="61573" departPos="145.53" from="nt7_nt6" id="evening186_61200" to="nt14_np11" type="griddist1"/>
    <trip arrivalPos="25.14" depart="61576" departPos="168.44" from="nt11_nt7" id="evening187_61200" to="nt14_np11" type="griddist1"/>
    <trip arrivalPos="53.23" depart="61576" departPos="119.52" from="nt11_nt7" id="evening188_61200" to="nt16_np8" type="griddist1"/>
    <trip arrivalPos="36.29" depart="61577" departPos="52.55" from="nt11_nt7" id="evening189_61200" to="nt14_np11" type="griddist1"/>
    <trip arrivalPos="3.14" depart="61579" departPos="55.71" from="nt10_nt11" id="evening190_61200" to="np4_nt4" type="griddist1"/>
    <trip arrivalPos="17.43" depart="61580" departPos="167.95" from="nt7_nt6" id="evening191_61200" to="np12_nt13" type="griddist1"/>
    <trip arrivalPos="14.41" depart="61584" departPos="66.26" from="nt7_nt6" id="evening192_61200" to="nt1_np16" type="griddist1"/>
    <trip arrivalPos="54.24" depart="61585" departPos="122.35" from="nt7_nt6" id="evening193_61200" to="nt5_np15" type="griddist1"/>
    <trip arrivalPos="55.27" depart="61586" departPos="16.08" from="nt6_nt10" id="evening194_61200" to="np12_nt13" type="griddist1"/>
    <trip arrivalPos="50.88" depart="61587" departPos="10.02" from="nt7_nt6" id="evening195_61200" to="np2_nt2" type="griddist1"/>
    <trip arrivalPos="21.61" depart="61589" departPos="153.55" from="nt10_nt11" id="evening196_61200" to="np1_nt1" type="griddist1"/>
    <trip arrivalPos="54.30" depart="61592" departPos="181.46" from="nt10_nt11" id="evening197_61200" to="np1_nt1" type="griddist1"/>
    <trip arrivalPos="73.70" depart="61593" departPos="12.50" from="nt7_nt6" id="evening198_61200" to="np10_nt15" type="griddist1"/>
    <trip arrivalPos="63.57" depart="61595" departPos="143.47" from="nt6_nt10" id="evening199_61200" to="nt5_np15" type="griddist1"/>
    <trip arrivalPos="62.11" depart="61598" departPos="138.11" from="nt11_nt7" id="evening200_61200" to="nt14_np11" type="griddist1"/>
    <trip arrivalPos="60.25" depart="61598" departPos="119.11" from="nt10_nt11" id="evening201_61200" to="nt1_np1" type="griddist1"/>
    <trip arrivalPos="57.60" depart="61599" departPos="19.93" from="nt7_nt6" id="evening202_61200" to="np15_nt5" type="griddist1"/>
    <trip arrivalPos="72.95" depart="61600" departPos="65.97" from="nt10_nt11" id="evening203_61200" to="np12_nt13" type="griddist1"/>
    <trip arrivalPos="5.76" depart="61604" departPos="7.48" from="nt7_nt6" id="evening204_61200" to="np8_nt16" type="griddist1"/>
    <trip arrivalPos="29.48" depart="61604" departPos="130.37" from="nt6_nt10" id="evening205_61200" to="nt1_np1" type="griddist1"/>
    <trip arrivalPos="31.52" depart="61607" departPos="35.94" from="nt11_nt7" id="evening206_61200" to="nt3_np3" type="griddist1"/>
    <trip arrivalPos="44.92" depart="61609" departPos="116.89" from="nt10_nt11" id="evening207_61200" to="np11_nt14" type="griddist1"/>
    <trip arrivalPos="52.68" depart="61610" departPos="29.35" from="nt7_nt6" id="evening208_61200" to="nt14_np11" type="griddist1"/>
    <trip arrivalPos="2.91" depart="61610" departPos="55.88" from="nt10_nt11" id="evening209_61200" to="nt13_np13" type="griddist1"/>
    <trip arrivalPos="40.93" depart="61611" departPos="99.12" from="nt6_nt10" id="evening210_61200" to="nt4_np4" type="griddist1"/>
    <trip arrivalPos="29.81" depart="61612" departPos="145.50" from="nt6_nt10" id="evening211_61200" to="nt13_np12" type="griddist1"/>
    <trip arrivalPos="14.19" depart="61613" departPos="30.90" from="nt11_nt7" id="evening212_61200" to="nt3_np3" type="griddist1"/>
    <trip arrivalPos="49.12" depart="61614" departPos="55.48" from="nt10_nt11" id="evening213_61200" to="nt16_np9" type="griddist1"/>
    <trip arrivalPos="6.68" depart="61615" departPos="48.81" from="nt10_nt11" id="evening214_61200" to="np11_nt14" type="griddist1"/>
    <trip arrivalPos="29.31" depart="61616" departPos="24.33" from="nt6_nt10" id="evening215_61200" to="nt2_np2" type="griddist1"/>
    <trip arrivalPos="16.45" depart="61623" departPos="151.13" from="nt11_nt7" id="evening216_61200" to="np10_nt15" type="griddist1"/>
    <trip arrivalPos="74.52" depart="61636" departPos="91.29" from="nt11_nt7" id="evening217_61200" to="np10_nt15" type="griddist1"/>
    <trip arrivalPos="21.55" depart="61637" departPos="48.67" from="nt10_nt11" id="evening218_61200" to="nt13_np13" type="griddist1"/>
    <trip arrivalPos="52.83" depart="61637" departPos="104.86" from="nt6_nt10" id="evening219_61200" to="np13_nt13" type="griddist1"/>
    <trip arrivalPos="12.57" depart="61638" departPos="165.32" from="nt7_nt6" id="evening220_61200" to="nt16_np9" type="griddist1"/>
    <trip arrivalPos="55.04" depart="61639" departPos="130.82" from="nt6_nt10" id="evening221_61200" to="nt13_np13" type="griddist1"/>
    <trip arrivalPos="4.95" depart="61639" departPos="42.54" from="nt10_nt11" id="evening222_61200" to="nt15_np10" type="griddist1"/>
    <trip arrivalPos="64.29" depart="61642" departPos="120.98" from="nt6_nt10" id="evening223_61200" to="np3_nt3" type="griddist1"/>
    <trip arrivalPos="33.31" depart="61642" departPos="106.60" from="nt7_nt6" id="evening224_61200" to="nt12_np7" type="griddist1"/>
    <trip arrivalPos="50.81" depart="61649" departPos="147.66" from="nt11_nt7" id="evening225_61200" to="np4_nt4" type="griddist1"/>