<routes>
    <trip arrivalPos="40.36" depart="57600" departPos="14.15" from="nt6_nt10" id="evening0_57600" to="np4_nt4" type="griddist1"/>
    <trip arrivalPos="43.15" depart="57602" departPos="52.86" from="nt10_nt11" id="evening1_57600" to="np2_nt2" type="griddist1"/>
    <trip arrivalPos="0.13" depart="57604" departPos="162.01" from="nt7_nt6" id="evening2_57600" to="np11_nt14" type="griddist1"/>
    <trip arrivalPos="65.62" depart="57604" departPos="139.00" from="nt11_nt7" id="evening3_57600" to="nt16_np9" type="griddist1"/>
    <trip arrivalPos="46.86" depart="57606" departPos="10.12" from="nt6_nt10" id="evening4_57600" to="np10_nt15" type="griddist1"/>
    <trip arrivalPos="23.46" depart="57612" departPos="102.09" from="nt11_nt7" id="evening5_57600" to="nt16_np9" type="griddist1"/>
    <trip arrivalPos="49.09" depart="57612" departPos="21.29" from="nt7_nt6" id="evening6_57600" to="np13_nt13" type="griddist1"/>
    <trip arrivalPos="46.68" depart="57613" departPos="60.04" from="nt6_nt10" id="evening7_57600" to="np1_nt1" type="griddist1"/>
    <trip arrivalPos="17.03" depart="57615" departPos="71.71" from="nt10_nt11" id="evening8_57600" to="nt13_np13" type="griddist1"/>
    <trip arrivalPos="62.29" depart="57616" departPos="152.18" from="nt7_nt6" id="evening9_57600" to="np2_nt2" type="griddist1"/>
    <trip arrivalPos="11.88" depart="57617" departPos="24.93" from="nt11_nt7" id="evening10_57600" to="np6_nt8" type="griddist1"/>
    <trip arrivalPos="13.81" depart="57621" departPos="174.97" from="nt7_nt6" id="evening11_57600" to="nt12_np7" type="griddist1"/>
    <trip arrivalPos="31.54" depart="57626" departPos="66.77" from="nt10_nt11" id="evening12_57600" to="np9_nt16" type="griddist1"/>
    <trip arrivalPos="62.57" depart="57628" departPos="119.78" from="nt10_nt11" id="evening13_57600" to="np8_nt16" type="griddist1"/>
    <trip arrivalPos="37.22" depart="57631" departPos="133.49" from="nt10_nt11" id="evening14_57600" to="nt2_np2" type="griddist1"/>
    <trip arrivalPos="51.79" depart="57631" departPos="119.82" from="nt10_nt11" id="evening15_57600" to="np15_nt5" type="griddist1"/>
    <trip arrivalPos="26.94" depart="57631" departPos="134.90" from="nt6_nt10" id="evening16_57600" to="nt1_np16" type="griddist1"/>
    <trip arrivalPos="49.64" depart="57636" departPos="81.87" from="nt6_nt10" id="evening17_57600" to="nt15_np10" type="griddist1"/>
    <trip arrivalPos="24.43" depart="57645" departPos="41.88" from="nt10_nt11" id="evening18_57600" to="nt13_np12" type="griddist1"/>
    <trip arrivalPos="23.55" depart="57646" departPos="31.53" from="nt11_nt7" id="evening19_57600" to="np13_nt13" type="griddist1"/>
    <trip arrivalPos="23.51" depart="57648" departPos="76.52" from="nt10_nt11" id="evening20_57600" to="nt2_np2" type="griddist1"/>
    <trip arrivalPos="54.92" depart="57652" departPos="98.71" from="nt11_nt7" id="evening21_57600" to="nt4_np5" type="griddist1"/>
    <trip arrivalPos="22.04" depart="57653" departPos="147.94" from="nt7_nt6" id="evening22_57600" to="np14_nt9" type="griddist1"/>
    <trip arrivalPos="14.00" depart="57653" departPos="76.29" from="nt6_nt10" id="evening23_57600" to="np14_nt9" type="griddist1"/>
    <trip arrivalPos="24.08" depart="57657" departPos="2.44" from="nt10_nt11" id="evening24_57600" to="np8_nt16" type="griddist1"/>
    <trip arrivalPos="12.51" depart="57657" departPos="48.36" from="nt6_nt10" id="evening25_57600" to="np16_nt1" type="griddist1"/>
    <trip arrivalPos="0.50" depart="57658" departPos="55.33" from="nt11_nt7" id="evening26_57600" to="np5_nt4" type="griddist1"/>
    <trip arrivalPos="5.27" depart="57661" departPos="94.84" from="nt11_nt7" id="evening27_57600" to="np13_nt13" type="griddist1"/>
    <trip arrivalPos="38.40" depart="57661" departPos="33.78" from="nt11_nt7" id="evening28_57600" to="np14_nt9" type="griddist1"/>
    <trip arrivalPos="18.34" depart="57666" departPos="30.42" from="nt10_nt11" id="evening29_57600" to="np4_nt4" type="griddist1"/>
    <trip arrivalPos="25.73" depart="57671" departPos="157.77" from="nt6_nt10" id="evening30_57600" to="nt1_np1" type="griddist1"/>
    <trip arrivalPos="60.67" depart="57672" departPos="84.45" from="nt10_nt11" id="evening31_57600" to="np12_nt13" type="griddist1"/>
    <trip arrivalPos="23.08" depart="57674" departPos="68.03" from="nt10_nt11" id="evening32_57600" to="nt2_np2" type="griddist1"/>
    <trip arrivalPos="53.95" depart="57675" departPos="177.12" from="nt11_nt7" id="evening33_57600" to="np4_nt4" type="griddist1"/>
    <trip arrivalPos="42.51" depart="57676" departPos="39.81" from="nt6_nt10" id="evening34_57600" to="np6_nt8" type="griddist1"/>
    <trip arrivalPos="51.06" depart="57676" departPos="57.42" from="nt10_nt11" id="evening35_57600" to="np9_nt16" type="griddist1"/>
    <trip arrivalPos="35.81" depart="57676" departPos="17.07" from="nt6_nt10" id="evening36_57600" to="nt16_np8" type="griddist1"/>
    <trip arrivalPos="45.04" depart="57679" departPos="5.50" from="nt10_nt11" id="evening37_57600" to="nt4_np4" type="griddist1"/>
    <trip arrivalPos="1.91" depart="57681" departPos="13.31" from="nt10_nt11" id="evening38_57600" to="nt1_np16" type="griddist1"/>
    <trip arrivalPos="36.77" depart="57684" departPos="35.96" from="nt10_nt11" id="evening39_57600" to="nt8_np6" type="griddist1"/>
    <trip arrivalPos="38.03" depart="57684" departPos="131.22" from="nt7_nt6" id="evening40_57600" to="np2_nt2" type="griddist1"/>
    <trip arrivalPos="63.69" depart="57685" departPos="70.57" from="nt11_nt7" id="evening41_57600" to="np1_nt1" type="griddist1"/>
    <trip arrivalPos="8.55" depart="57685" departPos="54.23" from="nt10_nt11" id="evening42_57600" to="nt15_np10" type="griddist1"/>
    <trip arrivalPos="19.78" depart="57685" departPos="33.18" from="nt10_nt11" id="evening43_57600" to="np14_nt9" type="griddist1"/>
    <trip arrivalPos="32.53" depart="57687" departPos="54.35" from="nt6_nt10" id="evening44_57600" to="np4_nt4" type="griddist1"/>
    <trip arrivalPos="1.20" depart="57690" departPos="77.60" from="nt11_nt7" id="evening45_57600" to="nt8_np6" type="griddist1"/>
    <trip arrivalPos="44.30" depart="57691" departPos="59.82" from="nt10_nt11" id="evening46_57600" to="nt4_np5" type="griddist1"/>
    <trip arrivalPos="25.93" depart="57694" departPos="177.29" from="nt7_nt6" id="evening47_57600" to="np14_nt9" type="griddist1"/>
    <trip arrivalPos="21.87" depart="57695" departPos="149.56" from="nt7_nt6" id="evening48_57600" to="np2_nt2" type="griddist1"/>
    <trip arrivalPos="35.57" depart="57698" departPos="176.33" from="nt11_nt7" id="evening49_57600" to="nt13_np13" type="griddist1"/>
    <trip arrivalPos="44.54" depart="57701" departPos="65.30" from="nt10_nt11" id="evening50_57600" to="np8_nt16" type="griddist1"/>
    <trip arrivalPos="63.97" depart="57703" departPos="139.80" from="nt10_nt11" id="evening51_57600" to="nt1_np16" type="griddist1"/>
    <trip arrivalPos="65.97" depart="57704" departPos="23.98" from="nt7_nt6" id="evening52_57600" to="np14_nt9" type="griddist1"/>
    <trip arrivalPos="5.84" depart="57705" departPos="17.42" from="nt6_nt10" id="evening53_57600" to="np7_nt12" type="griddist1"/>
    <trip arrivalPos="44.52" depart="57706" departPos="10.84" from="nt10_nt11" id="evening54_57600" to="np10_nt15" type="griddist1"/>
    <trip arrivalPos="5.94" depart="57707" departPos="152.53" from="nt6_nt10" id="evening55_57600" to="nt2_np2" type="griddist1"/>
    <trip arrivalPos="51.80" depart="57712" departPos="112.16" from="nt11_nt7" id="evening56_57600" to="nt13_np12" type="griddist1"/>
    <trip arrivalPos="61.16" depart="57712" departPos="114.02" from="nt10_nt11" id="evening57_57600" to="nt13_np13" type="griddist1"/>
    <trip arrivalPos="57.44" depart="57713" departPos="141.32" from="nt6_nt10" id="evening58_57600" to="nt1_np1" type="griddist1"/>
    <trip arrivalPos="19.50" depart="57714" departPos="20.48" from="nt11_nt7" id="evening59_57600" to="np4_nt4" type="griddist1"/>
    <trip arrivalPos="71.01" depart="57714" departPos="3.35" from="nt10_nt11" id="evening60_57600" to="np5_nt4" type="griddist1"/>
    <trip arrivalPos="58.56" depart="57717" departPos="95.11" from="nt11_nt7" id="evening61_57600" to="nt8_np6" type="griddist1"/>
    <trip arrivalPos="2.78" depart="57726" departPos="35.39" from="nt7_nt6" id="evening62_57600" to="np16_nt1" type="griddist1"/>
    <trip arrivalPos="57.59" depart="57727" departPos="153.99" from="nt6_nt10" id="evening63_57600" to="np8_nt16" type="griddist1"/>
    <trip arrivalPos="33.43" depart="57728" departPos="70.82" from="nt11_nt7" id="evening64_57600" to="np13_nt13" type="griddist1"/>
    <trip arrivalPos="2.40" depart="57729" departPos="52.16" from="nt11_nt7" id="evening65_57600" to="np14_nt9" type="griddist1"/>
    <trip arrivalPos="24.42" depart="57729" departPos="163.80" from="nt6_nt10" id="evening66_57600" to="np7_nt12" type="griddist1"/>
    <trip arrivalPos="61.92" depart="57733" departPos="61.24" from="nt7_nt6" id="evening67_57600" to="nt5_np15" type="griddist1"/>
    <trip arrivalPos="35.48" depart="57735" departPos="81.49" from="nt7_nt6" id="evening68_57600" to="nt13_np12" type="griddist1"/>
    <trip arrivalPos="16.18" depart="57739" departPos="26.11" from="nt6_nt10" id="evening69_57600" to="np3_nt3" type="griddist1"/>
    <trip arrivalPos="37.18" depart="57742" departPos="14.50" from="nt6_nt10" id="evening70_57600" to="nt16_np9" type="griddist1"/>
    <trip arrivalPos="35.18" depart="57745" departPos="7.55" from="nt11_nt7" id="evening71_57600" to="np8_nt16" type="griddist1"/>
    <trip arrivalPos="74.62" depart="57746" departPos="61.49" from="nt11_nt7" id="evening72_57600" to="nt15_np10" type="griddist1"/>
    <trip arrivalPos="19.14" depart="57747" departPos="134.85" from="nt10_nt11" id="evening73_57600" to="np4_nt4" type="griddist1"/>
    <trip arrivalPos="45.75" depart="57747" departPos="123.83" from="nt10_nt11" id="evening74_57600" to="nt13_np13" type="griddist1"/>
    <trip arrivalPos="29.80" depart="57748" departPos="4.80" from="nt7_nt6" id="evening75_57600" to="np3_nt3" type="griddist1"/>
    <trip arrivalPos="62.61" depart="57750" departPos="167.69" from="nt6_nt10" id="evening76_57600" to="np16_nt1" type="griddist1"/>
    <trip arrivalPos="68.34" depart="57750" departPos="17.57" from="nt7_nt6" id="evening77_57600" to="nt7_nt6" type="griddist1"/>
    <trip arrivalPos="30.84" depart="57752" departPos="179.00" from="nt6_nt10" id="evening78_57600" to="np14_nt9" type="griddist1"/>
    <trip arrivalPos="46.90" depart="57757" departPos="109.85" from="nt6_nt10" id="evening79_57600" to="nt4_np4" type="griddist1"/>
    <trip arrivalPos="62.54" depart="57758" departPos="54.10" from="nt7_nt6" id="evening80_57600" to="nt1_np16" type="griddist1"/>
    <trip arrivalPos="22.77" depart="57759" departPos="161.93" from="nt6_nt10" id="evening81_57600" to="np14_nt9" type="griddist1"/>
    <trip arrivalPos="16.52" depart="57759" departPos="62.21" from="nt6_nt10" id="evening82_57600" to="np1_nt1" type="griddist1"/>
    <trip arrivalPos="51.67" depart="57767" departPos="45.32" from="nt11_nt7" id="evening83_57600" to="nt15_np10" type="griddist1"/>
    <trip arrivalPos="31.66" depart="57768" departPos="27.73" from="nt6_nt10" id="evening84_57600" to="np4_nt4" type="griddist1"/>
    <trip arrivalPos="48.60" depart="57770" departPos="146.28" from="nt11_nt7" id="evening85_57600" to="np1_nt1" type="griddist1"/>
    <trip arrivalPos="58.29" depart="57772" departPos="95.62" from="nt10_nt11" id="evening86_57600" to="np2_nt2" type="griddist1"/>
    <trip arrivalPos="4.66" depart="57773" departPos="70.89" from="nt10_nt11" id="evening87_57600" to="np13_nt13" type="griddist1"/>
    <trip arrivalPos="37.37" depart="57773" departPos="68.65" from="nt11_nt7" id="evening88_57600" to="nt3_np3" type="griddist1"/>
    <trip arrivalPos="30.09" depart="57776" departPos="68.64" from="nt11_nt7" id="evening89_57600" to="nt15_np10" type="griddist1"/>
    <trip arrivalPos="68.74" depart="57779" departPos="114.85" from="nt10_nt11" id="evening90_57600" to="np7_nt12" type="griddist1"/>
    <trip arrivalPos="55.19" depart="57785" departPos="20.45" from="nt6_nt10" id="evening91_57600" to="np5_nt4" type="griddist1"/>
    <trip arrivalPos="26.43" depart="57789" departPos="121.55" from="nt7_nt6" id="evening92_57600" to="nt15_np10" type="griddist1"/>
    <trip arrivalPos="22.08" depart="57789" departPos="0.24" from="nt7_nt6" id="evening93_57600" to="np7_nt12" type="griddist1"/>
    <trip arrivalPos="34.88" depart="57791" departPos="66.03" from="nt10_nt11" id="evening94_57600" to="nt13_np12" type="griddist1"/>
    <trip arrivalPos="9.02" depart="57791" departPos="2.63" from="nt11_nt7" id="evening95_57600" to="nt1_np1" type="griddist1"/>
    <trip arrivalPos="43.82" depart="57791" departPos="65.20" from="nt10_nt11" id="evening96_57600" to="nt2_np2" type="griddist1"/>
    <trip arrivalPos="33.46" depart="57795" departPos="141.26" from="nt11_nt7" id="evening97_57600" to="nt16_np9" type="griddist1"/>
    <trip arrivalPos="6.01" depart="57801" departPos="158.44" from="nt6_nt10" id="evening98_57600" to="np14_nt9" type="griddist1"/>
    <trip arrivalPos="7.31" depart="57801" departPos="101.86" from="nt7_nt6" id="evening99_57600" to="nt9_np14" type="griddist1"/>
    <trip arrivalPos="45.88" depart="57804" departPos="102.31" from="nt10_nt11" id="evening100_57600" to="np3_nt3" type="griddist1"/>
    <trip arrivalPos="44.14" depart="57808" departPos="17.20" from="nt7_nt6" id="evening101_57600" to="np10_nt15" type="griddist1"/>
    <trip arrivalPos="44.84" depart="57811" departPos="34.00" from="nt7_nt6" id="evening102_57600" to="nt9_np14" type="griddist1"/>
    <trip arrivalPos="26.01" depart="57812" departPos="69.41" from="nt10_nt11" id="evening103_57600" to="nt3_np3" type="griddist1"/>
    <trip arrivalPos="68.16" depart="57812" departPos="130.69" from="nt6_nt10" id="evening104_57600" to="np7_nt12" type="griddist1"/>
    <trip arrivalPos="8.22" depart="57814" departPos="83.39" from="nt6_nt10" id="evening105_57600" to="nt1_np1" type="griddist1"/>
    <trip arrivalPos="23.83" depart="57815" departPos="17.34" from="nt11_nt7" id="evening106_57600" to="np16_nt1" type="griddist1"/>
    <trip arrivalPos="45.11" depart="57816" departPos="131.39" from="nt10_nt11" id="evening107_57600" to="np1_nt1" type="griddist1"/>
    <trip arrivalPos="1.22" depart="57822" departPos="58.21" from="nt10_nt11" id="evening108_57600" to="np11_nt14" type="griddist1"/>
    <trip arrivalPos="42.96" depart="57825" departPos="167.36" from="nt10_nt11" id="evening109_57600" to="np5_nt4" type="griddist1"/>
    <trip arrivalPos="9.56" depart="57828" departPos="98.22" from="nt7_nt6" id="evening110_57600" to="nt13_np13" type="griddist1"/>
    <trip arrivalPos="6.26" depart="57831" departPos="175.52" from="nt10_nt11" id="evening111_57600" to="nt13_np13" type="griddist1"/>
    <trip arrivalPos="32.77" depart="57835" departPos="3.84" from="nt7_nt6" id="evening112_57600" to="np14_nt9" type="griddist1"/>
    <trip arrivalPos="58.59" depart="57835" departPos="115.10" from="nt7_nt6" id="evening113_57600" to="nt15_np10" type="griddist1"/>
    <trip arrivalPos="8.36" depart="57836" departPos="50.80" from="nt11_nt7" id="evening114_57600" to="np4_nt4" type="griddist1"/>
    <trip arrivalPos="36.72" depart="57840" departPos="105.45" from="nt6_nt10" id="evening115_57600" to="np12_nt13" type="griddist1"/>
    <trip arrivalPos="73.72" depart="57842" departPos="171.77" from="nt10_nt11" id="evening116_57600" to="nt15_np10" type="griddist1"/>
    <trip arrivalPos="15.89" depart="57843" departPos="156.49" from="nt11_nt7" id="evening117_57600" to="np4_nt4" type="griddist1"/>
    <trip arrivalPos="5.76" depart="57843" departPos="69.00" from="nt10_nt11" id="evening118_57600" to="np14_nt9" type="griddist1"/>
    <trip arrivalPos="69.13" depart="57845" departPos="91.99" from="nt6_nt10" id="evening119_57600" to="nt14_np11" type="griddist1"/>
    <trip arrivalPos="72.61" depart="57850" departPos="67.51" from="nt11_nt7" id="evening120_57600" to="np10_nt15" type="griddist1"/>
    <trip arrivalPos="55.26" depart="57851" departPos="67.97" from="nt11_nt7" id="evening121_57600" to="np16_nt1" type="griddist1"/>
    <trip arrivalPos="15.27" depart="57852" departPos="13.01" from="nt11_nt7" id="evening122_57600" to="nt16_np8" type="griddist1"/>
    <trip arrivalPos="33.79" depart="57855" departPos="24.86" from="nt10_nt11" id="evening123_57600" to="nt15_np10" type="griddist1"/>
    <trip arrivalPos="25.41" depart="57856" departPos="131.20" from="nt11_nt7" id="evening124_57600" to="nt1_np1" type="griddist1"/>
    <trip arrivalPos="64.54" depart="57857" departPos="48.80" from="nt7_nt6" id="evening125_57600" to="np6_nt8" type="griddist1"/>
    <trip arrivalPos="44.31" depart="57859" departPos="163.88" from="nt6_nt10" id="evening126_57600" to="nt8_np6" type="griddist1"/>
    <trip arrivalPos="63.60" depart="57860" departPos="146.52" from="nt11_nt7" id="evening127_57600" to="nt16_np9" type="griddist1"/>
    <trip arrivalPos="65.48" depart="57865" departPos="51.32" from="nt11_nt7" id="evening128_57600" to="np15_nt5" type="griddist1"/>
    <trip arrivalPos="11.14" depart="57866" departPos="41.18" from="nt11_nt7" id="evening129_57600" to="np1_nt1" type="griddist1"/>
    <trip arrivalPos="33.35" depart="57869" departPos="84.88" from="nt7_nt6" id="evening130_57600" to="np13_nt13" type="griddist1"/>
    <trip arrivalPos="65.25" depart="57874" departPos="100.02" from="nt11_nt7" id="evening131_57600" to="nt16_np9" type="griddist1"/>
    <trip arrivalPos="44.42" depart="57876" departPos="73.01" from="nt10_nt11" id="evening132_57600" to="np12_nt13" type="griddist1"/>
    <trip arrivalPos="30.54" depart="57877" departPos="52.55" from="nt6_nt10" id="evening133_57600" to="np6_nt8" type="griddist1"/>
    <trip arrivalPos="17.94" depart="57877" departPos="29.14" from="nt6_nt10" id="evening134_57600" to="nt13_np13" type="griddist1"/>
    <trip arrivalPos="73.34" depart="57878" departPos="57.70" from="nt6_nt10" id="evening135_57600" to="np11_nt14" type="griddist1"/>
    <trip arrivalPos="28.90" depart="57879" departPos="34.73" from="nt6_nt10" id="evening136_57600" to="nt2_np2" type="griddist1"/>
    <trip arrivalPos="61.66" depart="57879" departPos="62.78" from="nt6_nt10" id="evening137_57600" to="nt8_np6" type="griddist1"/>
    <trip arrivalPos="63.55" depart="57884" departPos="44.88" from="nt10_nt11" id="evening138_57600" to="nt13_np12" type="griddist1"/>
    <trip arrivalPos="4.81" depart="57887" departPos="111.39" from="nt7_nt6" id="evening139_57600" to="nt13_np12" type="griddist1"/>
    <trip arrivalPos="62.83" depart="57888" departPos="38.51" from="nt6_nt10" id="evening140_57600" to="nt2_np2" type="griddist1"/>
    <trip arrivalPos="1.66" depart="57893" departPos="125.38" from="nt6_nt10" id="evening141_57600" to="np3_nt3" type="griddist1"/>
    <trip arrivalPos="3.31" depart="57896" departPos="41.23" from="nt6_nt10" id="evening142_57600" to="nt13_np13" type="griddist1"/>
    <trip arrivalPos="57.98" depart="57899" departPos="19.28" from="nt7_nt6" id="evening143_57600" to="nt1_np1" type="griddist1"/>
    <trip arrivalPos="48.95" depart="57902" departPos="91.11" from="nt7_nt6" id="evening144_57600" to="np13_nt13" type="griddist1"/>
    <trip arrivalPos="56.77" depart="57903" departPos="40.51" from="nt10_nt11" id="evening145_57600" to="np7_nt12" type="griddist1"/>
    <trip arrivalPos="0.11" depart="57905" departPos="181.39" from="nt10_nt11" id="evening146_57600" to="np10_nt15" type="griddist1"/>
    <trip arrivalPos="9.63" depart="57905" departPos="162.80" from="nt11_nt7" id="evening147_57600" to="np6_nt8" type="griddist1"/>
    <trip arrivalPos="30.75" depart="57905" departPos="72.40" from="nt10_nt11" id="evening148_57600" to="np10_nt15" type="griddist1"/>
    <trip arrivalPos="8.80" depart="57911" departPos="146.70" from="nt10_nt11" id="evening149_57600" to="nt3_np3" type="griddist1"/>
    <trip arrivalPos="3.44" depart="57914" departPos="41.98" from="nt6_nt10" id="evening150_57600" to="np14_nt9" type="griddist1"/>
    <trip arrivalPos="13.66" depart="57914" departPos="77.91" from="nt11_nt7" id="evening151_57600" to="np11_nt14" type="griddist1"/>
    <trip arrivalPos="36.21" depart="57914" departPos="108.20" from="nt11_nt7" id="evening152_57600" to="nt15_np10" type="griddist1"/>
    <trip arrivalPos="4.17" depart="57916" departPos="70.07" from="nt11_nt7" id="evening153_57600" to="nt16_np9" type="griddist1"/>
    <trip arrivalPos="24.54" depart="57916" departPos="126.56" from="nt7_nt6" id="evening154_57600" to="np7_nt12" type="griddist1"/>
    <trip arrivalPos="10.78" depart="57917" departPos="128.06" from="nt6_nt10" id="evening155_57600" to="nt1_np16" type="griddist1"/>
    <trip arrivalPos="55.70" depart="57917" departPos="135.91" from="nt10_nt11" id="evening156_57600" to="np15_nt5" type="griddist1"/>
    <trip arrivalPos="18.08" depart="57924" departPos="67.52" from="nt7_nt6" id="evening157_57600" to="nt14_np11" type="griddist1"/>
    <trip arrivalPos="61.74" depart="57926" departPos="12.90" from="nt11_nt7" id="evening158_57600" to="nt2_np2" type="griddist1"/>
    <trip arrivalPos="33.15" depart="57930" departPos="122.49" from="nt6_nt10" id="evening159_57600" to="np16_nt1" type="griddist1"/>
    <trip arrivalPos="47.22" depart="57930" departPos="4.59" from="nt7_nt6" id="evening160_57600" to="np11_nt14" type="griddist1"/>
    <trip arrivalPos="55.72" depart="57934" departPos="122.99" from="nt7_nt6" id="evening161_57600" to="np8_nt16" type="griddist1"/>
    <trip arrivalPos="72.91" depart="57938" departPos="52.09" from="nt6_nt10" id="evening162_57600" to="np5_nt4" type="griddist1"/>
    <trip arrivalPos="19.69" depart="57940" departPos="130.55" from="nt10_nt11" id="evening163_57600" to="nt14_np11" type="griddist1"/>
    <trip arrivalPos="55.93" depart="57941" departPos="159.29" from="nt7_nt6" id="evening164_57600" to="nt8_np6" type="griddist1"/>
    <trip arrivalPos="44.65" depart="57942" departPos="11.85" from="nt7_nt6" id="evening165_57600" to="nt4_np5" type="griddist1"/>
    <trip arrivalPos="9.49" depart="57942" departPos="24.86" from="nt7_nt6" id="evening166_57600" to="nt4_np4" type="griddist1"/>
    <trip arrivalPos="51.08" depart="57943" departPos="66.66" from="nt7_nt6" id="evening167_57600" to="np4_nt4" type="griddist1"/>
    <trip arrivalPos="25.45" depart="57944" departPos="163.91" from="nt10_nt11" id="evening168_57600" to="np8_nt16" type="griddist1"/>
    <trip arrivalPos="52.78" depart="57946" departPos="156.42" from="nt7_nt6" id="evening169_57600" to="nt1_np16" type="griddist1"/>
    <trip arrivalPos="38.75" depart="57947" departPos="151.43" from="nt10_nt11" id="evening170_57600" to="nt2_np2" type="griddist1"/>
    <trip arrivalPos="2.07" depart="57947" departPos="107.85" from="nt11_nt7" id="evening171_57600" to="nt4_np4" type="griddist1"/>
    <trip arrivalPos="37.36" depart="57947" departPos="154.28" from="nt6_nt10" id="evening172_57600" to="np12_nt13" type="griddist1"/>
    <trip arrivalPos="12.06" depart="57947" departPos="49.38" from="nt11_nt7" id="evening173_57600" to="np14_nt9" type="griddist1"/>
    <trip arrivalPos="28.41" depart="57950" departPos="83.40" from="nt7_nt6" id="evening174_57600" to="np6_nt8" type="griddist1"/>
    <trip arrivalPos="58.20" depart="57953" departPos="57.48" from="nt11_nt7" id="evening175_57600" to="nt5_np15" type="griddist1"/>
    <trip arrivalPos="37.85" depart="57954" departPos="10.74" from="nt11_nt7" id="evening176_57600" to="np2_nt2" type="griddist1"/>
    <trip arrivalPos="24.23" depart="57959" departPos="49.38" from="nt11_nt7" id="evening177_57600" to="np1_nt1" type="griddist1"/>
    <trip arrivalPos="36.14" depart="57961" departPos="126.48" from="nt7_nt6" id="evening178_57600" to="np6_nt8" type="griddist1"/>
    <trip arrivalPos="3.16" depart="57964" departPos="139.31" from="nt7_nt6" id="evening179_57600" to="np2_nt2" type="griddist1"/>
    <trip arrivalPos="6.86" depart="57966" departPos="22.82" from="nt6_nt10" id="evening180_57600" to="nt4_np5" type="griddist1"/>
    <trip arrivalPos="73.92" depart="57968" departPos="116.75" from="nt11_nt7" id="evening181_57600" to="nt8_np6" type="griddist1"/>
    <trip arrivalPos="35.83" depart="57970" departPos="130.92" from="nt11_nt7" id="evening182_57600" to="nt16_np8" type="griddist1"/>
    <trip arrivalPos="29.89" depart="57970" departPos="169.22" from="nt7_nt6" id="evening183_57600" to="np13_nt13" type="griddist1"/>
    <trip arrivalPos="71.10" depart="57971" departPos="149.94" from="nt10_nt11" id="evening184_57600" to="nt12_np7" type="griddist1"/>
    <trip arrivalPos="2.58" depart="57973" departPos="24.17" from="nt11_nt7" id="evening185_57600" to="nt16_np8" type="griddist1"/>
    <trip arrivalPos="60.48" depart="57973" departPos="145.53" from="nt7_nt6" id="evening186_57600" to="nt14_np11" type="griddist1"/>
    <trip arrivalPos="25.14" depart="57976" departPos="168.44" from="nt11_nt7" id="evening187_57600" to="nt14_np11" type="griddist1"/>
    <trip arrivalPos="53.23" depart="57976" departPos="119.52" from="nt11_nt7" id="evening188_57600" to="nt16_np8" type="griddist1"/>
    <trip arrivalPos="36.29" depart="57977" departPos="52.55" from="nt11_nt7" id="evening189_57600" to="nt14_np11" type="griddist1"/>
    <trip arrivalPos="3.14" depart="57979" departPos="55.71" from="nt10_nt11" id="evening190_57600" to="np4_nt4" type="griddist1"/>
    <trip arrivalPos="17.43" depart="57980" departPos="167.95" from="nt7_nt6" id="evening191_57600" to="np12_nt13" type="griddist1"/>
    <trip arrivalPos="14.41" depart="57984" departPos="66.26" from="nt7_nt6" id="evening192_57600" to="nt1_np16" type="griddist1"/>
    <trip arrivalPos="54.24" depart="57985" departPos="122.35" from="nt7_nt6" id="evening193_57600" to="nt5_np15" type="griddist1"/>
    <trip arrivalPos="55.27" depart="57986" departPos="16.08" from="nt6_nt10" id="evening194_57600" to="np12_nt13" type="griddist1"/>
    <trip arrivalPos="50.88" depart="57987" departPos="10.02" from="nt7_nt6" id="evening195_57600" to="np2_nt2" type="griddist1"/>
    <trip arrivalPos="21.61" depart="57989" departPos="153.55" from="nt10_nt11" id="evening196_57600" to="np1_nt1" type="griddist1"/>
    <trip arrivalPos="54.30" depart="57992" departPos="181.46" from="nt10_nt11" id="evening197_57600" to="np1_nt1" type="griddist1"/>
    <trip arrivalPos="73.70" depart="57993" departPos="12.50" from="nt7_nt6" id="evening198_57600" to="np10_nt15" type="griddist1"/>
    <trip arrivalPos="63.57" depart="57995" departPos="143.47" from="nt6_nt10" id="evening199_57600" to="nt5_np15" type="griddist1"/>
    <trip arrivalPos="62.11" depart="57998" departPos="138.11" from="nt11_nt7" id="evening200_57600" to="nt14_np11" type="griddist1"/>
    <trip arrivalPos="60.25" depart="57998" departPos="119.11" from="nt10_nt11" id="evening201_57600" to="nt1_np1" type="griddist1"/>
    <trip arrivalPos="57.60" depart="57999" departPos="19.93" from="nt7_nt6" id="evening202_57600" to="np15_nt5" type="griddist1"/>
    <trip arrivalPos="72.95" depart="58000" departPos="65.97" from="nt10_nt11" id="evening203_57600" to="np12_nt13" type="griddist1"/>
    <trip arrivalPos="5.76" depart="58004" departPos="7.48" from="nt7_nt6" id="evening204_57600" to="np8_nt16" type="griddist1"/>
    <trip arrivalPos="29.48" depart="58004" departPos="130.37" from="nt6_nt10" id="evening205_57600" to="nt1_np1" type="griddist1"/>
    <trip arrivalPos="31.52" depart="58007" departPos="35.94" from="nt11_nt7" id="evening206_57600" to="nt3_np3" type="griddist1"/>
    <trip arrivalPos="44.92" depart="58009" departPos="116.89" from="nt10_nt11" id="evening207_57600" to="np11_nt14" type="griddist1"/>
    <trip arrivalPos="52.68" depart="58010" departPos="29.35" from="nt7_nt6" id="evening208_57600" to="nt14_np11" type="griddist1"/>
    <trip arrivalPos="2.91" depart="58010" departPos="55.88" from="nt10_nt11" id="evening209_57600" to="nt13_np13" type="griddist1"/>
    <trip arrivalPos="40.93" depart="58011" departPos="99.12" from="nt6_nt10" id="evening210_57600" to="nt4_np4" type="griddist1"/>
    <trip arrivalPos="29.81" depart="58012" departPos="145.50" from="nt6_nt10" id="evening211_57600" to="nt13_np12" type="griddist1"/>
    <trip arrivalPos="14.19" depart="58013" departPos="30.90" from="nt11_nt7" id="evening212_57600" to="nt3_np3" type="griddist1"/>
    <trip arrivalPos="49.12" depart="58014" departPos="55.48" from="nt10_nt11" id="evening213_57600" to="nt16_np9" type="griddist1"/>
    <trip arrivalPos="6.68" depart="58015" departPos="48.81" from="nt10_nt11" id="evening214_57600" to="np11_nt14" type="griddist1"/>
    <trip arrivalPos="29.31" depart="58016" departPos="24.33" from="nt6_nt10" id="evening215_57600" to="nt2_np2" type="griddist1"/>
    <trip arrivalPos="16.45" depart="58023" departPos="151.13" from="nt11_nt7" id="evening216_57600" to="np10_nt15" type="griddist1"/>
    <trip arrivalPos="74.52" depart="58036" departPos="91.29" from="nt11_nt7" id="evening217_57600" to="np10_nt15" type="griddist1"/>
    <trip arrivalPos="21.55" depart="58037" departPos="48.67" from="nt10_nt11" id="evening218_57600" to="nt13_np13" type="griddist1"/>
    <trip arrivalPos="52.83" depart="58037" departPos="104.86" from="nt6_nt10" id="evening219_57600" to="np13_nt13" type="griddist1"/>
    <trip arrivalPos="12.57" depart="58038" departPos="165.32" from="nt7_nt6" id="evening220_57600" to="nt16_np9" type="griddist1"/>
    <trip arrivalPos="55.04" depart="58039" departPos="130.82" from="nt6_nt10" id="evening221_57600" to="nt13_np13" type="griddist1"/>
    <trip arrivalPos="4.95" depart="58039" departPos="42.54" from="nt10_nt11" id="evening222_57600" to="nt15_np10" type="griddist1"/>
    <trip arrivalPos="64.29" depart="58042" departPos="120.98" from="nt6_nt10" id="evening223_57600" to="np3_nt3" type="griddist1"/>
    <trip arrivalPos="33.31" depart="58042" departPos="106.60" from="nt7_nt6" id="evening224_57600" to="nt12_np7" type="griddist1"/>
    <trip arrivalPos="50.81" depart="58049" departPos="147.66" from="nt11_nt7" id="evening225_57600" to="np4_nt4" type="griddist1"/>