<routes>
    <trip arrivalPos="24.13" depart="21601" departPos="10.85" from="np10_nt15" id="morning0_21600" to="nt7_nt6" type="griddist1"/>
    <trip arrivalPos="4.78" depart="21602" departPos="122.69" from="nt10_nt11" id="morning1_21600" to="nt10_nt11" type="griddist1"/>
    <trip arrivalPos="60.09" depart="21604" departPos="17.84" from="np10_nt15" id="morning2_21600" to="nt7_nt6" type="griddist1"/>
    <trip arrivalPos="97.64" depart="21606" departPos="55.63" from="np5_nt4" id="morning3_21600" to="nt10_nt11" type="griddist1"/>
    <trip arrivalPos="91.97" depart="21608" departPos="139.42" from="nt5_nt1" id="morning4_21600" to="nt11_nt7" type="griddist1"/>
    <trip arrivalPos="7.77" depart="21610" departPos="64.10" from="np16_nt1" id="morning5_21600" to="nt6_nt10" type="griddist1"/>
    <trip arrivalPos="85.01" depart="21610" departPos="93.44" from="nt6_nt10" id="morning6_21600" to="nt7_nt6" type="griddist1"/>
    <trip arrivalPos="74.54" depart="21613" departPos="88.90" from="nt9_nt10" id="morning7_21600" to="nt10_nt11" type="griddist1"/>
    <trip arrivalPos="13.17" depart="21614" departPos="168.84" from="nt3_nt4" id="morning8_21600" to="nt11_nt7" type="griddist1"/>
    <trip arrivalPos="49.28" depart="21622" departPos="4.45" from="np15_nt5" id="morning9_21600" to="nt6_nt10" type="griddist1"/>
    <trip arrivalPos="178.24" depart="21624" departPos="60.35" from="nt2_nt3" id="morning10_21600" to="nt6_nt10" type="griddist1"/>
    <trip arrivalPos="17.77" depart="21626" departPos="112.37" from="nt15_nt14" id="morning11_21600" to="nt11_nt7" type="griddist1"/>
    <trip arrivalPos="142.72" depart="21629" departPos="116.64" from="nt3_nt7" id="morning12_21600" to="nt7_nt6" type="griddist1"/>
    <trip arrivalPos="42.41" depart="21632" departPos="80.92" from="nt4_nt8" id="morning13_21600" to="nt10_nt11" type="griddist1"/>
    <trip arrivalPos="17.04" depart="21633" departPos="77.21" from="nt11_nt12" id="morning14_21600" to="nt11_nt7" type="griddist1"/>
    <trip arrivalPos="27.35" depart="21638" departPos="69.47" from="nt13_nt14" id="morning15_21600" to="nt6_nt10" type="griddist1"/>
    <trip arrivalPos="17.30" depart="21638" departPos="149.05" from="nt8_nt4" id="morning16_21600" to="nt10_nt11" type="griddist1"/>
    <trip arrivalPos="99.70" depart="21639" departPos="55.04" from="np16_nt1" id="morning17_21600" to="nt6_nt10" type="griddist1"/>
    <trip arrivalPos="21.90" depart="21641" departPos="61.18" from="nt1_nt2" id="morning18_21600" to="nt6_nt10" type="griddist1"/>
    <trip arrivalPos="155.56" depart="21647" departPos="134.45" from="nt11_nt15" id="morning19_21600" to="nt6_nt10" type="griddist1"/>
    <trip arrivalPos="65.27" depart="21650" departPos="107.59" from="nt4_nt8" id="morning20_21600" to="nt7_nt6" type="griddist1"/>
    <trip arrivalPos="41.62" depart="21651" departPos="121.89" from="nt16_nt15" id="morning21_21600" to="nt10_nt11" type="griddist1"/>
    <trip arrivalPos="141.54" depart="21656" departPos="24.92" from="np16_nt1" id="morning22_21600" to="nt7_nt6" type="griddist1"/>
    <trip arrivalPos="180.88" depart="21657" departPos="156.86" from="nt16_nt15" id="morning23_21600" to="nt7_nt6" type="griddist1"/>
    <trip arrivalPos="4.70" depart="21657" departPos="119.28" from="nt6_nt5" id="morning24_21600" to="nt6_nt10" type="griddist1"/>
    <trip arrivalPos="33.49" depart="21660" departPos="47.93" from="nt8_nt4" id="morning25_21600" to="nt7_nt6" type="griddist1"/>
    <trip arrivalPos="1.09" depart="21662" departPos="60.90" from="nt3_nt7" id="morning26_21600" to="nt11_nt7" type="griddist1"/>
    <trip arrivalPos="25.42" depart="21670" departPos="71.82" from="nt7_nt3" id="morning27_21600" to="nt6_nt10" type="griddist1"/>
    <trip arrivalPos="39.93" depart="21679" departPos="138.48" from="nt2_nt3" id="morning28_21600" to="nt10_nt11" type="griddist1"/>
    <trip arrivalPos="129.31" depart="21679" departPos="66.31" from="nt12_nt8" id="morning29_21600" to="nt11_nt7" type="griddist1"/>
    <trip arrivalPos="9.43" depart="21680" departPos="15.22" from="nt5_nt9" id="morning30_21600" to="nt6_nt10" type="griddist1"/>
    <trip arrivalPos="48.76" depart="21683" departPos="43.54" from="np4_nt4" id="morning31_21600" to="nt6_nt10" type="griddist1"/>
    <trip arrivalPos="48.95" depart="21684" departPos="82.04" from="nt3_nt2" id="morning32_21600" to="nt11_nt7" type="griddist1"/>
    <trip arrivalPos="52.57" depart="21686" departPos="79.79" from="nt5_nt6" id="morning33_21600" to="nt10_nt11" type="griddist1"/>
    <trip arrivalPos="8.14" depart="21687" departPos="123.82" from="nt3_nt4" id="morning34_21600" to="nt11_nt7" type="griddist1"/>
    <trip arrivalPos="54.01" depart="21689" departPos="1.38" from="nt12_nt16" id="morning35_21600" to="nt6_nt10" type="griddist1"/>
    <trip arrivalPos="60.90" depart="21696" departPos="19.16" from="np7_nt12" id="morning36_21600" to="nt10_nt11" type="griddist1"/>
    <trip arrivalPos="68.13" depart="21700" departPos="13.18" from="np10_nt15" id="morning37_21600" to="nt6_nt10" type="griddist1"/>
    <trip arrivalPos="144.47" depart="21701" departPos="154.67" from="nt4_nt3" id="morning38_21600" to="nt6_nt10" type="griddist1"/>
    <trip arrivalPos="3.48" depart="21702" departPos="2.87" from="np14_nt9" id="morning39_21600" to="nt7_nt6" type="griddist1"/>
    <trip arrivalPos="106.42" depart="21702" departPos="103.18" from="nt8_nt12" id="morning40_21600" to="nt7_nt6" type="griddist1"/>
    <trip arrivalPos="3.74" depart="21705" departPos="21.38" from="nt4_nt3" id="morning41_21600" to="nt11_nt7" type="griddist1"/>
    <trip arrivalPos="154.42" depart="21705" departPos="114.72" from="nt11_nt10" id="morning42_21600" to="nt7_nt6" type="griddist1"/>
    <trip arrivalPos="45.16" depart="21708" departPos="151.33" from="nt8_nt12" id="morning43_21600" to="nt10_nt11" type="griddist1"/>
    <trip arrivalPos="55.60" depart="21710" departPos="73.45" from="nt1_nt2" id="morning44_21600" to="nt6_nt10" type="griddist1"/>
    <trip arrivalPos="91.48" depart="21711" departPos="31.21" from="nt11_nt12" id="morning45_21600" to="nt11_nt7" type="griddist1"/>
    <trip arrivalPos="62.61" depart="21713" departPos="58.52" from="np1_nt1" id="morning46_21600" to="nt6_nt10" type="griddist1"/>
    <trip arrivalPos="43.85" depart="21717" departPos="146.05" from="nt4_nt8" id="morning47_21600" to="nt7_nt6" type="griddist1"/>
    <trip arrivalPos="141.10" depart="21718" departPos="38.91" from="np3_nt3" id="morning48_21600" to="nt10_nt11" type="griddist1"/>
    <trip arrivalPos="91.71" depart="21718" departPos="138.49" from="nt2_nt6" id="morning49_21600" to="nt10_nt11" type="griddist1"/>
    <trip arrivalPos="171.52" depart="21718" departPos="83.32" from="nt5_nt6" id="morning50_21600" to="nt7_nt6" type="griddist1"/>
    <trip arrivalPos="154.87" depart="21722" departPos="115.91" from="nt16_nt15" id="morning51_21600" to="nt6_nt10" type="griddist1"/>
    <trip arrivalPos="82.07" depart="21727" departPos="12.67" from="nt2_nt3" id="morning52_21600" to="nt10_nt11" type="griddist1"/>
    <trip arrivalPos="90.91" depart="21728" departPos="10.43" from="nt10_nt9" id="morning53_21600" to="nt11_nt7" type="griddist1"/>
    <trip arrivalPos="149.04" depart="21730" departPos="10.56" from="nt10_nt9" id="morning54_21600" to="nt11_nt7" type="griddist1"/>
    <trip arrivalPos="114.15" depart="21731" departPos="57.99" from="np14_nt9" id="morning55_21600" to="nt7_nt6" type="griddist1"/>
    <trip arrivalPos="141.89" depart="21733" departPos="99.33" from="nt15_nt11" id="morning56_21600" to="nt11_nt7" type="griddist1"/>
    <trip arrivalPos="116.81" depart="21734" departPos="150.30" from="nt7_nt8" id="morning57_21600" to="nt11_nt7" type="griddist1"/>
    <trip arrivalPos="11.09" depart="21736" departPos="28.00" from="nt11_nt10" id="morning58_21600" to="nt11_nt7" type="griddist1"/>
    <trip arrivalPos="132.58" depart="21747" departPos="23.29" from="np16_nt1" id="morning59_21600" to="nt7_nt6" type="griddist1"/>
    <trip arrivalPos="81.25" depart="21747" departPos="44.40" from="nt15_nt11" id="morning60_21600" to="nt10_nt11" type="griddist1"/>
    <trip arrivalPos="66.82" depart="21750" departPos="28.45" from="nt13_nt9" id="morning61_21600" to="nt6_nt10" type="griddist1"/>
    <trip arrivalPos="107.14" depart="21751" departPos="60.64" from="nt10_nt6" id="morning62_21600" to="nt11_nt7" type="griddist1"/>
    <trip arrivalPos="16.94" depart="21752" departPos="11.81" from="nt6_nt10" id="morning63_21600" to="nt6_nt10" type="griddist1"/>
    <trip arrivalPos="117.66" depart="21756" departPos="134.32" from="nt3_nt4" id="morning64_21600" to="nt11_nt7" type="griddist1"/>
    <trip arrivalPos="108.16" depart="21758" departPos="59.74" from="nt8_nt12" id="morning65_21600" to="nt7_nt6" type="griddist1"/>
    <trip arrivalPos="125.17" depart="21761" departPos="62.51" from="np3_nt3" id="morning66_21600" to="nt11_nt7" type="griddist1"/>
    <trip arrivalPos="55.48" depart="21762" departPos="168.09" from="nt12_nt16" id="morning67_21600" to="nt6_nt10" type="griddist1"/>
    <trip arrivalPos="124.37" depart="21763" departPos="150.93" from="nt12_nt11" id="morning68_21600" to="nt7_nt6" type="griddist1"/>
    <trip arrivalPos="94.33" depart="21763" departPos="127.21" from="nt6_nt7" id="morning69_21600" to="nt6_nt10" type="griddist1"/>
    <trip arrivalPos="64.98" depart="21764" departPos="64.84" from="nt2_nt6" id="morning70_21600" to="nt11_nt7" type="griddist1"/>
    <trip arrivalPos="90.25" depart="21764" departPos="71.08" from="np5_nt4" id="morning71_21600" to="nt10_nt11" type="griddist1"/>
    <trip arrivalPos="156.73" depart="21768" departPos="5.79" from="np8_nt16" id="morning72_21600" to="nt10_nt11" type="griddist1"/>
    <trip arrivalPos="164.01" depart="21771" departPos="56.62" from="np16_nt1" id="morning73_21600" to="nt7_nt6" type="griddist1"/>
    <trip arrivalPos="23.48" depart="21777" departPos="57.47" from="np12_nt13" id="morning74_21600" to="nt11_nt7" type="griddist1"/>
    <trip arrivalPos="143.12" depart="21778" departPos="154.30" from="nt12_nt11" id="morning75_21600" to="nt10_nt11" type="griddist1"/>
    <trip arrivalPos="76.26" depart="21780" departPos="78.43" from="nt6_nt2" id="morning76_21600" to="nt10_nt11" type="griddist1"/>
    <trip arrivalPos="52.88" depart="21781" departPos="82.44" from="nt3_nt4" id="morning77_21600" to="nt10_nt11" type="griddist1"/>
    <trip arrivalPos="55.46" depart="21785" departPos="95.69" from="nt5_nt1" id="morning78_21600" to="nt11_nt7" type="griddist1"/>
    <trip arrivalPos="65.92" depart="21786" departPos="149.65" from="nt6_nt2" id="morning79_21600" to="nt11_nt7" type="griddist1"/>
    <trip arrivalPos="52.30" depart="21787" departPos="85.69" from="nt8_nt7" id="morning80_21600" to="nt7_nt6" type="griddist1"/>
    <trip arrivalPos="146.39" depart="21788" departPos="179.34" from="nt12_nt11" id="morning81_21600" to="nt6_nt10" type="griddist1"/>
    <trip arrivalPos="119.00" depart="21789" departPos="44.80" from="nt6_nt2" id="morning82_21600" to="nt10_nt11" type="griddist1"/>
    <trip arrivalPos="151.58" depart="21792" departPos="18.38" from="nt7_nt3" id="morning83_21600" to="nt6_nt10" type="griddist1"/>
    <trip arrivalPos="48.88" depart="21800" departPos="136.75" from="nt7_nt11" id="morning84_21600" to="nt11_nt7" type="griddist1"/>
    <trip arrivalPos="175.65" depart="21805" departPos="81.19" from="nt7_nt8" id="morning85_21600" to="nt10_nt11" type="griddist1"/>
    <trip arrivalPos="4.78" depart="21805" departPos="26.22" from="np8_nt16" id="morning86_21600" to="nt11_nt7" type="griddist1"/>
    <trip arrivalPos="178.22" depart="21805" departPos="15.99" from="np13_nt13" id="morning87_21600" to="nt6_nt10" type="griddist1"/>
    <trip arrivalPos="155.75" depart="21807" departPos="166.80" from="nt11_nt7" id="morning88_21600" to="nt10_nt11" type="griddist1"/>
    <trip arrivalPos="53.24" depart="21807" departPos="24.66" from="nt2_nt6" id="morning89_21600" to="nt7_nt6" type="griddist1"/>
    <trip arrivalPos="126.43" depart="21808" departPos="25.76" from="nt6_nt7" id="morning90_21600" to="nt6_nt10" type="griddist1"/>
    <trip arrivalPos="47.50" depart="21810" departPos="14.20" from="nt13_nt9" id="morning91_21600" to="nt10_nt11" type="griddist1"/>
    <trip arrivalPos="94.58" depart="21811" departPos="134.97" from="nt6_nt7" id="morning92_21600" to="nt6_nt10" type="griddist1"/>
    <trip arrivalPos="8.56" depart="21813" departPos="19.45" from="np1_nt1" id="morning93_21600" to="nt11_nt7" type="griddist1"/>
    <trip arrivalPos="20.58" depart="21819" departPos="81.91" from="nt12_nt8" id="morning94_21600" to="nt7_nt6" type="griddist1"/>
    <trip arrivalPos="92.36" depart="21821" departPos="3.05" from="nt7_nt8" id="morning95_21600" to="nt6_nt10" type="griddist1"/>
    <trip arrivalPos="114.11" depart="21822" departPos="32.19" from="np9_nt16" id="morning96_21600" to="nt10_nt11" type="griddist1"/>
    <trip arrivalPos="15.34" depart="21823" departPos="49.83" from="np9_nt16" id="morning97_21600" to="nt11_nt7" type="griddist1"/>
    <trip arrivalPos="94.16" depart="21829" departPos="94.27" from="nt9_nt13" id="morning98_21600" to="nt10_nt11" type="griddist1"/>
    <trip arrivalPos="84.25" depart="21829" departPos="69.97" from="nt9_nt5" id="morning99_21600" to="nt6_nt10" type="griddist1"/>
    <trip arrivalPos="3.01" depart="21832" departPos="47.08" from="nt2_nt3" id="morning100_21600" to="nt7_nt6" type="griddist1"/>
    <trip arrivalPos="112.58" depart="21834" departPos="131.34" from="nt6_nt10" id="morning101_21600" to="nt11_nt7" type="griddist1"/>
    <trip arrivalPos="7.94" depart="21837" departPos="59.59" from="nt5_nt9" id="morning102_21600" to="nt6_nt10" type="griddist1"/>
    <trip arrivalPos="144.61" depart="21839" departPos="32.50" from="nt15_nt16" id="morning103_21600" to="nt7_nt6" type="griddist1"/>
    <trip arrivalPos="145.42" depart="21840" departPos="113.21" from="nt14_nt10" id="morning104_21600" to="nt6_nt10" type="griddist1"/>
    <trip arrivalPos="54.46" depart="21841" departPos="31.03" from="np14_nt9" id="morning105_21600" to="nt7_nt6" type="griddist1"/>
    <trip arrivalPos="173.23" depart="21844" departPos="3.14" from="np12_nt13" id="morning106_21600" to="nt10_nt11" type="griddist1"/>
    <trip arrivalPos="47.02" depart="21846" departPos="97.31" from="nt15_nt11" id="morning107_21600" to="nt7_nt6" type="griddist1"/>
    <trip arrivalPos="144.92" depart="21848" departPos="66.25" from="nt5_nt6" id="morning108_21600" to="nt10_nt11" type="griddist1"/>
    <trip arrivalPos="65.95" depart="21848" departPos="22.31" from="nt7_nt3" id="morning109_21600" to="nt11_nt7" type="griddist1"/>
    <trip arrivalPos="69.29" depart="21849" departPos="166.04" from="nt7_nt6" id="morning110_21600" to="nt6_nt10" type="griddist1"/>
    <trip arrivalPos="165.64" depart="21855" departPos="89.16" from="nt9_nt13" id="morning111_21600" to="nt11_nt7" type="griddist1"/>
    <trip arrivalPos="14.65" depart="21858" departPos="134.95" from="nt15_nt14" id="morning112_21600" to="nt7_nt6" type="griddist1"/>
    <trip arrivalPos="59.62" depart="21860" departPos="97.75" from="nt1_nt5" id="morning113_21600" to="nt7_nt6" type="griddist1"/>
    <trip arrivalPos="107.99" depart="21862" departPos="20.78" from="np15_nt5" id="morning114_21600" to="nt6_nt10" type="griddist1"/>
    <trip arrivalPos="7.59" depart="21863" departPos="65.25" from="nt13_nt14" id="morning115_21600" to="nt6_nt10" type="griddist1"/>
    <trip arrivalPos="49.20" depart="21867" departPos="178.87" from="nt7_nt3" id="morning116_21600" to="nt11_nt7" type="griddist1"/>
    <trip arrivalPos="118.32" depart="21871" departPos="13.45" from="nt9_nt13" id="morning117_21600" to="nt7_nt6" type="griddist1"/>
    <trip arrivalPos="176.84" depart="21876" departPos="121.75" from="nt11_nt7" id="morning118_21600" to="nt7_nt6" type="griddist1"/>
    <trip arrivalPos="6.24" depart="21878" departPos="50.47" from="np3_nt3" id="morning119_21600" to="nt6_nt10" type="griddist1"/>
    <trip arrivalPos="71.06" depart="21880" departPos="24.84" from="np14_nt9" id="morning120_21600" to="nt7_nt6" type="griddist1"/>
    <trip arrivalPos="170.03" depart="21880" departPos="126.03" from="nt16_nt15" id="morning121_21600" to="nt6_nt10" type="griddist1"/>
    <trip arrivalPos="98.27" depart="21881" departPos="102.85" from="nt11_nt7" id="morning122_21600" to="nt7_nt6" type="griddist1"/>
    <trip arrivalPos="20.33" depart="21881" departPos="44.73" from="nt12_nt16" id="morning123_21600" to="nt6_nt10" type="griddist1"/>
    <trip arrivalPos="100.65" depart="21881" departPos="69.35" from="nt5_nt1" id="morning124_21600" to="nt11_nt7" type="griddist1"/>
    <trip arrivalPos="178.55" depart="21882" departPos="82.83" from="nt10_nt11" id="morning125_21600" to="nt11_nt7" type="griddist1"/>
    <trip arrivalPos="22.76" depart="21883" departPos="88.02" from="nt10_nt6" id="morning126_21600" to="nt7_nt6" type="griddist1"/>
    <trip arrivalPos="79.76" depart="21884" departPos="161.04" from="nt7_nt11" id="morning127_21600" to="nt11_nt7" type="griddist1"/>
    <trip arrivalPos="57.27" depart="21884" departPos="57.33" from="np15_nt5" id="morning128_21600" to="nt6_nt10" type="griddist1"/>
    <trip arrivalPos="165.43" depart="21885" departPos="97.16" from="nt11_nt15" id="morning129_21600" to="nt10_nt11" type="griddist1"/>
    <trip arrivalPos="114.28" depart="21886" departPos="166.18" from="nt7_nt11" id="morning130_21600" to="nt6_nt10" type="griddist1"/>
    <trip arrivalPos="36.02" depart="21890" departPos="21.75" from="nt6_nt10" id="morning131_21600" to="nt6_nt10" type="griddist1"/>
    <trip arrivalPos="102.83" depart="21890" departPos="1.70" from="np2_nt2" id="morning132_21600" to="nt7_nt6" type="griddist1"/>
    <trip arrivalPos="113.58" depart="21891" departPos="98.86" from="nt11_nt7" id="morning133_21600" to="nt7_nt6" type="griddist1"/>
    <trip arrivalPos="128.82" depart="21892" departPos="67.77" from="np15_nt5" id="morning134_21600" to="nt11_nt7" type="griddist1"/>
    <trip arrivalPos="13.69" depart="21892" departPos="152.81" from="nt15_nt14" id="morning135_21600" to="nt7_nt6" type="griddist1"/>
    <trip arrivalPos="121.88" depart="21897" departPos="80.64" from="nt9_nt13" id="morning136_21600" to="nt6_nt10" type="griddist1"/>
    <trip arrivalPos="118.75" depart="21898" departPos="139.82" from="nt11_nt15" id="morning137_21600" to="nt7_nt6" type="griddist1"/>
    <trip arrivalPos="169.03" depart="21900" departPos="32.45" from="np5_nt4" id="morning138_21600" to="nt7_nt6" type="griddist1"/>
    <trip arrivalPos="30.56" depart="21902" departPos="10.37" from="np13_nt13" id="morning139_21600" to="nt10_nt11" type="griddist1"/>
    <trip arrivalPos="168.61" depart="21903" departPos="64.22" from="nt11_nt10" id="morning140_21600" to="nt6_nt10" type="griddist1"/>
    <trip arrivalPos="117.87" depart="21906" departPos="46.51" from="nt7_nt8" id="morning141_21600" to="nt7_nt6" type="griddist1"/>
    <trip arrivalPos="99.01" depart="21907" departPos="54.27" from="nt16_nt12" id="morning142_21600" to="nt10_nt11" type="griddist1"/>
    <trip arrivalPos="28.62" depart="21908" departPos="168.74" from="nt15_nt11" id="morning143_21600" to="nt10_nt11" type="griddist1"/>
    <trip arrivalPos="150.98" depart="21908" departPos="112.31" from="nt3_nt2" id="morning144_21600" to="nt6_nt10" type="griddist1"/>
    <trip arrivalPos="8.44" depart="21908" departPos="5.27" from="nt16_nt15" id="morning145_21600" to="nt7_nt6" type="griddist1"/>
    <trip arrivalPos="137.44" depart="21911" departPos="116.68" from="nt2_nt6" id="morning146_21600" to="nt6_nt10" type="griddist1"/>
    <trip arrivalPos="112.39" depart="21917" departPos="89.25" from="nt12_nt8" id="morning147_21600" to="nt6_nt10" type="griddist1"/>
    <trip arrivalPos="149.35" depart="21922" departPos="86.54" from="nt10_nt6" id="morning148_21600" to="nt7_nt6" type="griddist1"/>
    <trip arrivalPos="10.74" depart="21922" departPos="13.54" from="nt3_nt4" id="morning149_21600" to="nt11_nt7" type="griddist1"/>
    <trip arrivalPos="108.71" depart="21923" departPos="36.56" from="nt13_nt9" id="morning150_21600" to="nt11_nt7" type="griddist1"/>
    <trip arrivalPos="154.25" depart="21926" departPos="136.27" from="nt11_nt10" id="morning151_21600" to="nt6_nt10" type="griddist1"/>
    <trip arrivalPos="104.24" depart="21928" departPos="66.40" from="nt9_nt13" id="morning152_21600" to="nt10_nt11" type="griddist1"/>
    <trip arrivalPos="44.43" depart="21928" departPos="49.64" from="nt11_nt10" id="morning153_21600" to="nt11_nt7" type="griddist1"/>
    <trip arrivalPos="110.28" depart="21929" departPos="26.05" from="np16_nt1" id="morning154_21600" to="nt11_nt7" type="griddist1"/>
    <trip arrivalPos="60.77" depart="21930" departPos="11.98" from="np9_nt16" id="morning155_21600" to="nt7_nt6" type="griddist1"/>
    <trip arrivalPos="89.29" depart="21932" departPos="141.64" from="nt16_nt15" id="morning156_21600" to="nt11_nt7" type="griddist1"/>
    <trip arrivalPos="4.15" depart="21935" departPos="55.29" from="nt15_nt11" id="morning157_21600" to="nt11_nt7" type="griddist1"/>
    <trip arrivalPos="38.55" depart="21935" departPos="179.42" from="nt8_nt7" id="morning158_21600" to="nt6_nt10" type="griddist1"/>
    <trip arrivalPos="163.76" depart="21943" departPos="88.69" from="nt11_nt15" id="morning159_21600" to="nt10_nt11" type="griddist1"/>
    <trip arrivalPos="151.81" depart="21947" departPos="96.17" from="nt2_nt6" id="morning160_21600" to="nt11_nt7" type="griddist1"/>
    <trip arrivalPos="141.77" depart="21948" departPos="135.03" from="nt13_nt14" id="morning161_21600" to="nt7_nt6" type="griddist1"/>
    <trip arrivalPos="34.88" depart="21950" departPos="102.19" from="nt11_nt7" id="morning162_21600" to="nt11_nt7" type="griddist1"/>
    <trip arrivalPos="141.87" depart="21950" departPos="90.36" from="nt16_nt12" id="morning163_21600" to="nt10_nt11" type="griddist1"/>
    <trip arrivalPos="22.05" depart="21954" departPos="121.93" from="nt10_nt14" id="morning164_21600" to="nt7_nt6" type="griddist1"/>
    <trip arrivalPos="60.76" depart="21956" departPos="142.45" from="nt9_nt13" id="morning165_21600" to="nt11_nt7" type="griddist1"/>
    <trip arrivalPos="94.49" depart="21960" departPos="36.95" from="nt8_nt7" id="morning166_21600" to="nt7_nt6" type="griddist1"/>
    <trip arrivalPos="61.81" depart="21969" departPos="24.56" from="nt15_nt11" id="morning167_21600" to="nt10_nt11" type="griddist1"/>
    <trip arrivalPos="92.38" depart="21969" departPos="112.52" from="nt14_nt13" id="morning168_21600" to="nt11_nt7" type="griddist1"/>
    <trip arrivalPos="177.52" depart="21970" departPos="30.16" from="nt11_nt10" id="morning169_21600" to="nt6_nt10" type="griddist1"/>
    <trip arrivalPos="148.43" depart="21972" departPos="60.28" from="nt5_nt1" id="morning170_21600" to="nt11_nt7" type="griddist1"/>
    <trip arrivalPos="146.18" depart="21973" departPos="55.64" from="nt15_nt16" id="morning171_21600" to="nt6_nt10" type="griddist1"/>
    <trip arrivalPos="104.60" depart="21974" departPos="175.60" from="nt11_nt7" id="morning172_21600" to="nt6_nt10" type="griddist1"/>
    <trip arrivalPos="4.78" depart="21975" departPos="123.30" from="nt6_nt10" id="morning173_21600" to="nt6_nt10" type="griddist1"/>
    <trip arrivalPos="144.06" depart="21978" departPos="145.31" from="nt14_nt13" id="morning174_21600" to="nt7_nt6" type="griddist1"/>
    <trip arrivalPos="30.56" depart="21979" departPos="108.30" from="nt16_nt15" id="morning175_21600" to="nt6_nt10" type="griddist1"/>
    <trip arrivalPos="26.48" depart="21981" departPos="156.12" from="nt2_nt3" id="morning176_21600" to="nt6_nt10" type="griddist1"/>
    <trip arrivalPos="20.40" depart="21981" departPos="175.99" from="nt3_nt4" id="morning177_21600" to="nt10_nt11" type="griddist1"/>
    <trip arrivalPos="123.74" depart="21982" departPos="11.36" from="np11_nt14" id="morning178_21600" to="nt11_nt7" type="griddist1"/>
    <trip arrivalPos="161.99" depart="21982" departPos="164.96" from="nt12_nt8" id="morning179_21600" to="nt7_nt6" type="griddist1"/>
    <trip arrivalPos="38.48" depart="21983" departPos="24.74" from="nt5_nt1" id="morning180_21600" to="nt10_nt11" type="griddist1"/>
    <trip arrivalPos="56.22" depart="21986" departPos="97.53" from="nt11_nt10" id="morning181_21600" to="nt6_nt10" type="griddist1"/>
    <trip arrivalPos="65.76" depart="21996" departPos="25.67" from="np5_nt4" id="morning182_21600" to="nt7_nt6" type="griddist1"/>
    <trip arrivalPos="124.24" depart="21997" departPos="115.28" from="nt5_nt9" id="morning183_21600" to="nt6_nt10" type="griddist1"/>
    <trip arrivalPos="103.58" depart="21997" departPos="45.75" from="nt2_nt1" id="morning184_21600" to="nt10_nt11" type="griddist1"/>
    <trip arrivalPos="53.64" depart="21998" departPos="22.32" from="np8_nt16" id="morning185_21600" to="nt7_nt6" type="griddist1"/>
    <trip arrivalPos="62.51" depart="22001" departPos="23.78" from="np7_nt12" id="morning186_21600" to="nt6_nt10" type="griddist1"/>
    <trip arrivalPos="22.62" depart="22003" departPos="49.00" from="nt8_nt4" id="morning187_21600" to="nt7_nt6" type="griddist1"/>
    <trip arrivalPos="146.65" depart="22003" departPos="181.92" from="nt3_nt4" id="morning188_21600" to="nt11_nt7" type="griddist1"/>
    <trip arrivalPos="53.38" depart="22005" departPos="53.91" from="nt9_nt10" id="morning189_21600" to="nt7_nt6" type="griddist1"/>
    <trip arrivalPos="45.95" depart="22006" departPos="82.11" from="nt4_nt3" id="morning190_21600" to="nt11_nt7" type="griddist1"/>
    <trip arrivalPos="173.17" depart="22006" departPos="99.96" from="nt14_nt13" id="morning191_21600" to="nt10_nt11" type="griddist1"/>
    <trip arrivalPos="108.92" depart="22008" departPos="110.33" from="nt3_nt7" id="morning192_21600" to="nt10_nt11" type="griddist1"/>
    <trip arrivalPos="114.32" depart="22009" departPos="39.83" from="np9_nt16" id="morning193_21600" to="nt6_nt10" type="griddist1"/>
    <trip arrivalPos="18.02" depart="22011" departPos="48.64" from="np13_nt13" id="morning194_21600" to="nt11_nt7" type="griddist1"/>
    <trip arrivalPos="172.44" depart="22011" departPos="98.62" from="nt5_nt9" id="morning195_21600" to="nt10_nt11" type="griddist1"/>
    <trip arrivalPos="88.61" depart="22011" departPos="157.41" from="nt12_nt8" id="morning196_21600" to="nt7_nt6" type="griddist1"/>
    <trip arrivalPos="119.88" depart="22013" departPos="24.09" from="np6_nt8" id="morning197_21600" to="nt7_nt6" type="griddist1"/>
    <trip arrivalPos="99.32" depart="22017" departPos="102.88" from="nt8_nt12" id="morning198_21600" to="nt10_nt11" type="griddist1"/>
    <trip arrivalPos="32.49" depart="22018" departPos="163.65" from="nt4_nt8" id="morning199_21600" to="nt7_nt6" type="griddist1"/>
    <trip arrivalPos="185.08" depart="22019" departPos="170.68" from="nt7_nt6" id="morning200_21600" to="nt10_nt11" type="griddist1"/>
    <trip arrivalPos="172.41" depart="22020" departPos="167.84" from="nt12_nt16" id="morning201_21600" to="nt11_nt7" type="griddist1"/>
    <trip arrivalPos="105.41" depart="22021" departPos="1.66" from="nt8_nt4" id="morning202_21600" to="nt7_nt6" type="griddist1"/>
    <trip arrivalPos="183.58" depart="22024" departPos="19.29" from="np16_nt1" id="morning203_21600" to="nt7_nt6" type="griddist1"/>
    <trip arrivalPos="152.51" depart="22028" departPos="174.20" from="nt15_nt16" id="morning204_21600" to="nt11_nt7" type="griddist1"/>
    <trip arrivalPos="30.16" depart="22032" departPos="20.19" from="nt14_nt10" id="morning205_21600" to="nt10_nt11" type="griddist1"/>
    <trip arrivalPos="132.00" depart="22035" departPos="33.37" from="nt14_nt10" id="morning206_21600" to="nt11_nt7" type="griddist1"/>
    <trip arrivalPos="31.45" depart="22036" departPos="135.71" from="nt6_nt10" id="morning207_21600" to="nt6_nt10" type="griddist1"/>
    <trip arrivalPos="95.64" depart="22036" departPos="148.20" from="nt7_nt11" id="morning208_21600" to="nt7_nt6" type="griddist1"/>
    <trip arrivalPos="25.20" depart="22038" departPos="12.53" from="np15_nt5" id="morning209_21600" to="nt6_nt10" type="griddist1"/>
    <trip arrivalPos="43.71" depart="22042" departPos="48.40" from="nt11_nt10" id="morning210_21600" to="nt10_nt11" type="griddist1"/>
    <trip arrivalPos="134.17" depart="22042" departPos="56.04" from="nt5_nt6" id="morning211_21600" to="nt7_nt6" type="griddist1"/>
    <trip arrivalPos="11.13" depart="22043" departPos="51.96" from="np10_nt15" id="morning212_21600" to="nt6_nt10" type="griddist1"/>
    <trip arrivalPos="90.05" depart="22044" departPos="26.19" from="np1_nt1" id="morning213_21600" to="nt11_nt7" type="griddist1"/>
    <trip arrivalPos="21.04" depart="22047" departPos="57.72" from="nt7_nt8" id="morning214_21600" to="nt6_nt10" type="griddist1"/>
    <trip arrivalPos="39.27" depart="22049" departPos="110.14" from="nt8_nt12" id="morning215_21600" to="nt11_nt7" type="griddist1"/>
    <trip arrivalPos="112.43" depart="22056" departPos="48.30" from="np2_nt2" id="morning216_21600" to="nt10_nt11" type="griddist1"/>
    <trip arrivalPos="96.32" depart="22056" departPos="84.37" from="nt12_nt8" id="morning217_21600" to="nt6_nt10" type="griddist1"/>
    <trip arrivalPos="140.08" depart="22058" departPos="45.93" from="nt3_nt2" id="morning218_21600" to="nt10_nt11" type="griddist1"/>
    <trip arrivalPos="130.62" depart="22058" departPos="80.06" from="nt7_nt3" id="morning219_21600" to="nt10_nt11" type="griddist1"/>
    <trip arrivalPos="98.14" depart="22064" departPos="4.19" from="np14_nt9" id="morning220_21600" to="nt6_nt10" type="griddist1"/>
    <trip arrivalPos="58.80" depart="22067" departPos="26.85" from="nt15_nt11" id="morning221_21600" to="nt6_nt10" type="griddist1"/>
    <trip arrivalPos="108.23" depart="22068" departPos="38.12" from="nt15_nt14" id="morning222_21600" to="nt10_nt11" type="griddist1"/>
    <trip arrivalPos="81.26" depart="22069" departPos="54.83" from="np15_nt5" id="morning223_21600" to="nt6_nt10" type="griddist1"/>
    <trip arrivalPos="82.86" depart="22069" departPos="10.35" from="nt15_nt11" id="morning224_21600" to="nt11_nt7" type="griddist1"/>