<routes>
    <trip arrivalPos="24.13" depart="25201" departPos="10.85" from="np10_nt15" id="morning0_25200" to="nt7_nt6" type="griddist1"/>
    <trip arrivalPos="4.78" depart="25202" departPos="122.69" from="nt10_nt11" id="morning1_25200" to="nt10_nt11" type="griddist1"/>
    <trip arrivalPos="60.09" depart="25204" departPos="17.84" from="np10_nt15" id="morning2_25200" to="nt7_nt6" type="griddist1"/>
    <trip arrivalPos="97.64" depart="25206" departPos="55.63" from="np5_nt4" id="morning3_25200" to="nt10_nt11" type="griddist1"/>
    <trip arrivalPos="91.97" depart="25208" departPos="139.42" from="nt5_nt1" id="morning4_25200" to="nt11_nt7" type="griddist1"/>
    <trip arrivalPos="7.77" depart="25210" departPos="64.10" from="np16_nt1" id="morning5_25200" to="nt6_nt10" type="griddist1"/>
    <trip arrivalPos="85.01" depart="25210" departPos="93.44" from="nt6_nt10" id="morning6_25200" to="nt7_nt6" type="griddist1"/>
    <trip arrivalPos="74.54" depart="25213" departPos="88.90" from="nt9_nt10" id="morning7_25200" to="nt10_nt11" type="griddist1"/>
    <trip arrivalPos="13.17" depart="25214" departPos="168.84" from="nt3_nt4" id="morning8_25200" to="nt11_nt7" type="griddist1"/>
    <trip arrivalPos="49.28" depart="25222" departPos="4.45" from="np15_nt5" id="morning9_25200" to="nt6_nt10" type="griddist1"/>
    <trip arrivalPos="178.24" depart="25224" departPos="60.35" from="nt2_nt3" id="morning10_25200" to="nt6_nt10" type="griddist1"/>
    <trip arrivalPos="17.77" depart="25226" departPos="112.37" from="nt15_nt14" id="morning11_25200" to="nt11_nt7" type="griddist1"/>
    <trip arrivalPos="142.72" depart="25229" departPos="116.64" from="nt3_nt7" id="morning12_25200" to="nt7_nt6" type="griddist1"/>
    <trip arrivalPos="42.41" depart="25232" departPos="80.92" from="nt4_nt8" id="morning13_25200" to="nt10_nt11" type="griddist1"/>
    <trip arrivalPos="17.04" depart="25233" departPos="77.21" from="nt11_nt12" id="morning14_25200" to="nt11_nt7" type="griddist1"/>
    <trip arrivalPos="27.35" depart="25238" departPos="69.47" from="nt13_nt14" id="morning15_25200" to="nt6_nt10" type="griddist1"/>
    <trip arrivalPos="17.30" depart="25238" departPos="149.05" from="nt8_nt4" id="morning16_25200" to="nt10_nt11" type="griddist1"/>
    <trip arrivalPos="99.70" depart="25239" departPos="55.04" from="np16_nt1" id="morning17_25200" to="nt6_nt10" type="griddist1"/>
    <trip arrivalPos="21.90" depart="25241" departPos="61.18" from="nt1_nt2" id="morning18_25200" to="nt6_nt10" type="griddist1"/>
    <trip arrivalPos="155.56" depart="25247" departPos="134.45" from="nt11_nt15" id="morning19_25200" to="nt6_nt10" type="griddist1"/>
    <trip arrivalPos="65.27" depart="25250" departPos="107.59" from="nt4_nt8" id="morning20_25200" to="nt7_nt6" type="griddist1"/>
    <trip arrivalPos="41.62" depart="25251" departPos="121.89" from="nt16_nt15" id="morning21_25200" to="nt10_nt11" type="griddist1"/>
    <trip arrivalPos="141.54" depart="25256" departPos="24.92" from="np16_nt1" id="morning22_25200" to="nt7_nt6" type="griddist1"/>
    <trip arrivalPos="180.88" depart="25257" departPos="156.86" from="nt16_nt15" id="morning23_25200" to="nt7_nt6" type="griddist1"/>
    <trip arrivalPos="4.70" depart="25257" departPos="119.28" from="nt6_nt5" id="morning24_25200" to="nt6_nt10" type="griddist1"/>
    <trip arrivalPos="33.49" depart="25260" departPos="47.93" from="nt8_nt4" id="morning25_25200" to="nt7_nt6" type="griddist1"/>
    <trip arrivalPos="1.09" depart="25262" departPos="60.90" from="nt3_nt7" id="morning26_25200" to="nt11_nt7" type="griddist1"/>
    <trip arrivalPos="25.42" depart="25270" departPos="71.82" from="nt7_nt3" id="morning27_25200" to="nt6_nt10" type="griddist1"/>
    <trip arrivalPos="39.93" depart="25279" departPos="138.48" from="nt2_nt3" id="morning28_25200" to="nt10_nt11" type="griddist1"/>
    <trip arrivalPos="129.31" depart="25279" departPos="66.31" from="nt12_nt8" id="morning29_25200" to="nt11_nt7" type="griddist1"/>
    <trip arrivalPos="9.43" depart="25280" departPos="15.22" from="nt5_nt9" id="morning30_25200" to="nt6_nt10" type="griddist1"/>
    <trip arrivalPos="48.76" depart="25283" departPos="43.54" from="np4_nt4" id="morning31_25200" to="nt6_nt10" type="griddist1"/>
    <trip arrivalPos="48.95" depart="25284" departPos="82.04" from="nt3_nt2" id="morning32_25200" to="nt11_nt7" type="griddist1"/>
    <trip arrivalPos="52.57" depart="25286" departPos="79.79" from="nt5_nt6" id="morning33_25200" to="nt10_nt11" type="griddist1"/>
    <trip arrivalPos="8.14" depart="25287" departPos="123.82" from="nt3_nt4" id="morning34_25200" to="nt11_nt7" type="griddist1"/>
    <trip arrivalPos="54.01" depart="25289" departPos="1.38" from="nt12_nt16" id="morning35_25200" to="nt6_nt10" type="griddist1"/>
    <trip arrivalPos="60.90" depart="25296" departPos="19.16" from="np7_nt12" id="morning36_25200" to="nt10_nt11" type="griddist1"/>
    <trip arrivalPos="68.13" depart="25300" departPos="13.18" from="np10_nt15" id="morning37_25200" to="nt6_nt10" type="griddist1"/>
    <trip arrivalPos="144.47" depart="25301" departPos="154.67" from="nt4_nt3" id="morning38_25200" to="nt6_nt10" type="griddist1"/>
    <trip arrivalPos="3.48" depart="25302" departPos="2.87" from="np14_nt9" id="morning39_25200" to="nt7_nt6" type="griddist1"/>
    <trip arrivalPos="106.42" depart="25302" departPos="103.18" from="nt8_nt12" id="morning40_25200" to="nt7_nt6" type="griddist1"/>
    <trip arrivalPos="3.74" depart="25305" departPos="21.38" from="nt4_nt3" id="morning41_25200" to="nt11_nt7" type="griddist1"/>
    <trip arrivalPos="154.42" depart="25305" departPos="114.72" from="nt11_nt10" id="morning42_25200" to="nt7_nt6" type="griddist1"/>
    <trip arrivalPos="45.16" depart="25308" departPos="151.33" from="nt8_nt12" id="morning43_25200" to="nt10_nt11" type="griddist1"/>
    <trip arrivalPos="55.60" depart="25310" departPos="73.45" from="nt1_nt2" id="morning44_25200" to="nt6_nt10" type="griddist1"/>
    <trip arrivalPos="91.48" depart="25311" departPos="31.21" from="nt11_nt12" id="morning45_25200" to="nt11_nt7" type="griddist1"/>
    <trip arrivalPos="62.61" depart="25313" departPos="58.52" from="np1_nt1" id="morning46_25200" to="nt6_nt10" type="griddist1"/>
    <trip arrivalPos="43.85" depart="25317" departPos="146.05" from="nt4_nt8" id="morning47_25200" to="nt7_nt6" type="griddist1"/>
    <trip arrivalPos="141.10" depart="25318" departPos="38.91" from="np3_nt3" id="morning48_25200" to="nt10_nt11" type="griddist1"/>
    <trip arrivalPos="91.71" depart="25318" departPos="138.49" from="nt2_nt6" id="morning49_25200" to="nt10_nt11" type="griddist1"/>
    <trip arrivalPos="171.52" depart="25318" departPos="83.32" from="nt5_nt6" id="morning50_25200" to="nt7_nt6" type="griddist1"/>
    <trip arrivalPos="154.87" depart="25322" departPos="115.91" from="nt16_nt15" id="morning51_25200" to="nt6_nt10" type="griddist1"/>
    <trip arrivalPos="82.07" depart="25327" departPos="12.67" from="nt2_nt3" id="morning52_25200" to="nt10_nt11" type="griddist1"/>
    <trip arrivalPos="90.91" depart="25328" departPos="10.43" from="nt10_nt9" id="morning53_25200" to="nt11_nt7" type="griddist1"/>
    <trip arrivalPos="149.04" depart="25330" departPos="10.56" from="nt10_nt9" id="morning54_25200" to="nt11_nt7" type="griddist1"/>
    <trip arrivalPos="114.15" depart="25331" departPos="57.99" from="np14_nt9" id="morning55_25200" to="nt7_nt6" type="griddist1"/>
    <trip arrivalPos="141.89" depart="25333" departPos="99.33" from="nt15_nt11" id="morning56_25200" to="nt11_nt7" type="griddist1"/>
    <trip arrivalPos="116.81" depart="25334" departPos="150.30" from="nt7_nt8" id="morning57_25200" to="nt11_nt7" type="griddist1"/>
    <trip arrivalPos="11.09" depart="25336" departPos="28.00" from="nt11_nt10" id="morning58_25200" to="nt11_nt7" type="griddist1"/>
    <trip arrivalPos="132.58" depart="25347" departPos="23.29" from="np16_nt1" id="morning59_25200" to="nt7_nt6" type="griddist1"/>
    <trip arrivalPos="81.25" depart="25347" departPos="44.40" from="nt15_nt11" id="morning60_25200" to="nt10_nt11" type="griddist1"/>
    <trip arrivalPos="66.82" depart="25350" departPos="28.45" from="nt13_nt9" id="morning61_25200" to="nt6_nt10" type="griddist1"/>
    <trip arrivalPos="107.14" depart="25351" departPos="60.64" from="nt10_nt6" id="morning62_25200" to="nt11_nt7" type="griddist1"/>
    <trip arrivalPos="16.94" depart="25352" departPos="11.81" from="nt6_nt10" id="morning63_25200" to="nt6_nt10" type="griddist1"/>
    <trip arrivalPos="117.66" depart="25356" departPos="134.32" from="nt3_nt4" id="morning64_25200" to="nt11_nt7" type="griddist1"/>
    <trip arrivalPos="108.16" depart="25358" departPos="59.74" from="nt8_nt12" id="morning65_25200" to="nt7_nt6" type="griddist1"/>
    <trip arrivalPos="125.17" depart="25361" departPos="62.51" from="np3_nt3" id="morning66_25200" to="nt11_nt7" type="griddist1"/>
    <trip arrivalPos="55.48" depart="25362" departPos="168.09" from="nt12_nt16" id="morning67_25200" to="nt6_nt10" type="griddist1"/>
    <trip arrivalPos="124.37" depart="25363" departPos="150.93" from="nt12_nt11" id="morning68_25200" to="nt7_nt6" type="griddist1"/>
    <trip arrivalPos="94.33" depart="25363" departPos="127.21" from="nt6_nt7" id="morning69_25200" to="nt6_nt10" type="griddist1"/>
    <trip arrivalPos="64.98" depart="25364" departPos="64.84" from="nt2_nt6" id="morning70_25200" to="nt11_nt7" type="griddist1"/>
    <trip arrivalPos="90.25" depart="25364" departPos="71.08" from="np5_nt4" id="morning71_25200" to="nt10_nt11" type="griddist1"/>
    <trip arrivalPos="156.73" depart="25368" departPos="5.79" from="np8_nt16" id="morning72_25200" to="nt10_nt11" type="griddist1"/>
    <trip arrivalPos="164.01" depart="25371" departPos="56.62" from="np16_nt1" id="morning73_25200" to="nt7_nt6" type="griddist1"/>
    <trip arrivalPos="23.48" depart="25377" departPos="57.47" from="np12_nt13" id="morning74_25200" to="nt11_nt7" type="griddist1"/>
    <trip arrivalPos="143.12" depart="25378" departPos="154.30" from="nt12_nt11" id="morning75_25200" to="nt10_nt11" type="griddist1"/>
    <trip arrivalPos="76.26" depart="25380" departPos="78.43" from="nt6_nt2" id="morning76_25200" to="nt10_nt11" type="griddist1"/>
    <trip arrivalPos="52.88" depart="25381" departPos="82.44" from="nt3_nt4" id="morning77_25200" to="nt10_nt11" type="griddist1"/>
    <trip arrivalPos="55.46" depart="25385" departPos="95.69" from="nt5_nt1" id="morning78_25200" to="nt11_nt7" type="griddist1"/>
    <trip arrivalPos="65.92" depart="25386" departPos="149.65" from="nt6_nt2" id="morning79_25200" to="nt11_nt7" type="griddist1"/>
    <trip arrivalPos="52.30" depart="25387" departPos="85.69" from="nt8_nt7" id="morning80_25200" to="nt7_nt6" type="griddist1"/>
    <trip arrivalPos="146.39" depart="25388" departPos="179.34" from="nt12_nt11" id="morning81_25200" to="nt6_nt10" type="griddist1"/>
    <trip arrivalPos="119.00" depart="25389" departPos="44.80" from="nt6_nt2" id="morning82_25200" to="nt10_nt11" type="griddist1"/>
    <trip arrivalPos="151.58" depart="25392" departPos="18.38" from="nt7_nt3" id="morning83_25200" to="nt6_nt10" type="griddist1"/>
    <trip arrivalPos="48.88" depart="25400" departPos="136.75" from="nt7_nt11" id="morning84_25200" to="nt11_nt7" type="griddist1"/>
    <trip arrivalPos="175.65" depart="25405" departPos="81.19" from="nt7_nt8" id="morning85_25200" to="nt10_nt11" type="griddist1"/>
    <trip arrivalPos="4.78" depart="25405" departPos="26.22" from="np8_nt16" id="morning86_25200" to="nt11_nt7" type="griddist1"/>
    <trip arrivalPos="178.22" depart="25405" departPos="15.99" from="np13_nt13" id="morning87_25200" to="nt6_nt10" type="griddist1"/>
    <trip arrivalPos="155.75" depart="25407" departPos="166.80" from="nt11_nt7" id="morning88_25200" to="nt10_nt11" type="griddist1"/>
    <trip arrivalPos="53.24" depart="25407" departPos="24.66" from="nt2_nt6" id="morning89_25200" to="nt7_nt6" type="griddist1"/>
    <trip arrivalPos="126.43" depart="25408" departPos="25.76" from="nt6_nt7" id="morning90_25200" to="nt6_nt10" type="griddist1"/>
    <trip arrivalPos="47.50" depart="25410" departPos="14.20" from="nt13_nt9" id="morning91_25200" to="nt10_nt11" type="griddist1"/>
    <trip arrivalPos="94.58" depart="25411" departPos="134.97" from="nt6_nt7" id="morning92_25200" to="nt6_nt10" type="griddist1"/>
    <trip arrivalPos="8.56" depart="25413" departPos="19.45" from="np1_nt1" id="morning93_25200" to="nt11_nt7" type="griddist1"/>
    <trip arrivalPos="20.58" depart="25419" departPos="81.91" from="nt12_nt8" id="morning94_25200" to="nt7_nt6" type="griddist1"/>
    <trip arrivalPos="92.36" depart="25421" departPos="3.05" from="nt7_nt8" id="morning95_25200" to="nt6_nt10" type="griddist1"/>
    <trip arrivalPos="114.11" depart="25422" departPos="32.19" from="np9_nt16" id="morning96_25200" to="nt10_nt11" type="griddist1"/>
    <trip arrivalPos="15.34" depart="25423" departPos="49.83" from="np9_nt16" id="morning97_25200" to="nt11_nt7" type="griddist1"/>
    <trip arrivalPos="94.16" depart="25429" departPos="94.27" from="nt9_nt13" id="morning98_25200" to="nt10_nt11" type="griddist1"/>
    <trip arrivalPos="84.25" depart="25429" departPos="69.97" from="nt9_nt5" id="morning99_25200" to="nt6_nt10" type="griddist1"/>
    <trip arrivalPos="3.01" depart="25432" departPos="47.08" from="nt2_nt3" id="morning100_25200" to="nt7_nt6" type="griddist1"/>
    <trip arrivalPos="112.58" depart="25434" departPos="131.34" from="nt6_nt10" id="morning101_25200" to="nt11_nt7" type="griddist1"/>
    <trip arrivalPos="7.94" depart="25437" departPos="59.59" from="nt5_nt9" id="morning102_25200" to="nt6_nt10" type="griddist1"/>
    <trip arrivalPos="144.61" depart="25439" departPos="32.50" from="nt15_nt16" id="morning103_25200" to="nt7_nt6" type="griddist1"/>
    <trip arrivalPos="145.42" depart="25440" departPos="113.21" from="nt14_nt10" id="morning104_25200" to="nt6_nt10" type="griddist1"/>
    <trip arrivalPos="54.46" depart="25441" departPos="31.03" from="np14_nt9" id="morning105_25200" to="nt7_nt6" type="griddist1"/>
    <trip arrivalPos="173.23" depart="25444" departPos="3.14" from="np12_nt13" id="morning106_25200" to="nt10_nt11" type="griddist1"/>
    <trip arrivalPos="47.02" depart="25446" departPos="97.31" from="nt15_nt11" id="morning107_25200" to="nt7_nt6" type="griddist1"/>
    <trip arrivalPos="144.92" depart="25448" departPos="66.25" from="nt5_nt6" id="morning108_25200" to="nt10_nt11" type="griddist1"/>
    <trip arrivalPos="65.95" depart="25448" departPos="22.31" from="nt7_nt3" id="morning109_25200" to="nt11_nt7" type="griddist1"/>
    <trip arrivalPos="69.29" depart="25449" departPos="166.04" from="nt7_nt6" id="morning110_25200" to="nt6_nt10" type="griddist1"/>
    <trip arrivalPos="165.64" depart="25455" departPos="89.16" from="nt9_nt13" id="morning111_25200" to="nt11_nt7" type="griddist1"/>
    <trip arrivalPos="14.65" depart="25458" departPos="134.95" from="nt15_nt14" id="morning112_25200" to="nt7_nt6" type="griddist1"/>
    <trip arrivalPos="59.62" depart="25460" departPos="97.75" from="nt1_nt5" id="morning113_25200" to="nt7_nt6" type="griddist1"/>
    <trip arrivalPos="107.99" depart="25462" departPos="20.78" from="np15_nt5" id="morning114_25200" to="nt6_nt10" type="griddist1"/>
    <trip arrivalPos="7.59" depart="25463" departPos="65.25" from="nt13_nt14" id="morning115_25200" to="nt6_nt10" type="griddist1"/>
    <trip arrivalPos="49.20" depart="25467" departPos="178.87" from="nt7_nt3" id="morning116_25200" to="nt11_nt7" type="griddist1"/>
    <trip arrivalPos="118.32" depart="25471" departPos="13.45" from="nt9_nt13" id="morning117_25200" to="nt7_nt6" type="griddist1"/>
    <trip arrivalPos="176.84" depart="25476" departPos="121.75" from="nt11_nt7" id="morning118_25200" to="nt7_nt6" type="griddist1"/>
    <trip arrivalPos="6.24" depart="25478" departPos="50.47" from="np3_nt3" id="morning119_25200" to="nt6_nt10" type="griddist1"/>
    <trip arrivalPos="71.06" depart="25480" departPos="24.84" from="np14_nt9" id="morning120_25200" to="nt7_nt6" type="griddist1"/>
    <trip arrivalPos="170.03" depart="25480" departPos="126.03" from="nt16_nt15" id="morning121_25200" to="nt6_nt10" type="griddist1"/>
    <trip arrivalPos="98.27" depart="25481" departPos="102.85" from="nt11_nt7" id="morning122_25200" to="nt7_nt6" type="griddist1"/>
    <trip arrivalPos="20.33" depart="25481" departPos="44.73" from="nt12_nt16" id="morning123_25200" to="nt6_nt10" type="griddist1"/>
    <trip arrivalPos="100.65" depart="25481" departPos="69.35" from="nt5_nt1" id="morning124_25200" to="nt11_nt7" type="griddist1"/>
    <trip arrivalPos="178.55" depart="25482" departPos="82.83" from="nt10_nt11" id="morning125_25200" to="nt11_nt7" type="griddist1"/>
    <trip arrivalPos="22.76" depart="25483" departPos="88.02" from="nt10_nt6" id="morning126_25200" to="nt7_nt6" type="griddist1"/>
    <trip arrivalPos="79.76" depart="25484" departPos="161.04" from="nt7_nt11" id="morning127_25200" to="nt11_nt7" type="griddist1"/>
    <trip arrivalPos="57.27" depart="25484" departPos="57.33" from="np15_nt5" id="morning128_25200" to="nt6_nt10" type="griddist1"/>
    <trip arrivalPos="165.43" depart="25485" departPos="97.16" from="nt11_nt15" id="morning129_25200" to="nt10_nt11" type="griddist1"/>
    <trip arrivalPos="114.28" depart="25486" departPos="166.18" from="nt7_nt11" id="morning130_25200" to="nt6_nt10" type="griddist1"/>
    <trip arrivalPos="36.02" depart="25490" departPos="21.75" from="nt6_nt10" id="morning131_25200" to="nt6_nt10" type="griddist1"/>
    <trip arrivalPos="102.83" depart="25490" departPos="1.70" from="np2_nt2" id="morning132_25200" to="nt7_nt6" type="griddist1"/>
    <trip arrivalPos="113.58" depart="25491" departPos="98.86" from="nt11_nt7" id="morning133_25200" to="nt7_nt6" type="griddist1"/>
    <trip arrivalPos="128.82" depart="25492" departPos="67.77" from="np15_nt5" id="morning134_25200" to="nt11_nt7" type="griddist1"/>
    <trip arrivalPos="13.69" depart="25492" departPos="152.81" from="nt15_nt14" id="morning135_25200" to="nt7_nt6" type="griddist1"/>
    <trip arrivalPos="121.88" depart="25497" departPos="80.64" from="nt9_nt13" id="morning136_25200" to="nt6_nt10" type="griddist1"/>
    <trip arrivalPos="118.75" depart="25498" departPos="139.82" from="nt11_nt15" id="morning137_25200" to="nt7_nt6" type="griddist1"/>
    <trip arrivalPos="169.03" depart="25500" departPos="32.45" from="np5_nt4" id="morning138_25200" to="nt7_nt6" type="griddist1"/>
    <trip arrivalPos="30.56" depart="25502" departPos="10.37" from="np13_nt13" id="morning139_25200" to="nt10_nt11" type="griddist1"/>
    <trip arrivalPos="168.61" depart="25503" departPos="64.22" from="nt11_nt10" id="morning140_25200" to="nt6_nt10" type="griddist1"/>
    <trip arrivalPos="117.87" depart="25506" departPos="46.51" from="nt7_nt8" id="morning141_25200" to="nt7_nt6" type="griddist1"/>
    <trip arrivalPos="99.01" depart="25507" departPos="54.27" from="nt16_nt12" id="morning142_25200" to="nt10_nt11" type="griddist1"/>
    <trip arrivalPos="28.62" depart="25508" departPos="168.74" from="nt15_nt11" id="morning143_25200" to="nt10_nt11" type="griddist1"/>
    <trip arrivalPos="150.98" depart="25508" departPos="112.31" from="nt3_nt2" id="morning144_25200" to="nt6_nt10" type="griddist1"/>
    <trip arrivalPos="8.44" depart="25508" departPos="5.27" from="nt16_nt15" id="morning145_25200" to="nt7_nt6" type="griddist1"/>
    <trip arrivalPos="137.44" depart="25511" departPos="116.68" from="nt2_nt6" id="morning146_25200" to="nt6_nt10" type="griddist1"/>
    <trip arrivalPos="112.39" depart="25517" departPos="89.25" from="nt12_nt8" id="morning147_25200" to="nt6_nt10" type="griddist1"/>
    <trip arrivalPos="149.35" depart="25522" departPos="86.54" from="nt10_nt6" id="morning148_25200" to="nt7_nt6" type="griddist1"/>
    <trip arrivalPos="10.74" depart="25522" departPos="13.54" from="nt3_nt4" id="morning149_25200" to="nt11_nt7" type="griddist1"/>
    <trip arrivalPos="108.71" depart="25523" departPos="36.56" from="nt13_nt9" id="morning150_25200" to="nt11_nt7" type="griddist1"/>
    <trip arrivalPos="154.25" depart="25526" departPos="136.27" from="nt11_nt10" id="morning151_25200" to="nt6_nt10" type="griddist1"/>
    <trip arrivalPos="104.24" depart="25528" departPos="66.40" from="nt9_nt13" id="morning152_25200" to="nt10_nt11" type="griddist1"/>
    <trip arrivalPos="44.43" depart="25528" departPos="49.64" from="nt11_nt10" id="morning153_25200" to="nt11_nt7" type="griddist1"/>
    <trip arrivalPos="110.28" depart="25529" departPos="26.05" from="np16_nt1" id="morning154_25200" to="nt11_nt7" type="griddist1"/>
    <trip arrivalPos="60.77" depart="25530" departPos="11.98" from="np9_nt16" id="morning155_25200" to="nt7_nt6" type="griddist1"/>
    <trip arrivalPos="89.29" depart="25532" departPos="141.64" from="nt16_nt15" id="morning156_25200" to="nt11_nt7" type="griddist1"/>
    <trip arrivalPos="4.15" depart="25535" departPos="55.29" from="nt15_nt11" id="morning157_25200" to="nt11_nt7" type="griddist1"/>
    <trip arrivalPos="38.55" depart="25535" departPos="179.42" from="nt8_nt7" id="morning158_25200" to="nt6_nt10" type="griddist1"/>
    <trip arrivalPos="163.76" depart="25543" departPos="88.69" from="nt11_nt15" id="morning159_25200" to="nt10_nt11" type="griddist1"/>
    <trip arrivalPos="151.81" depart="25547" departPos="96.17" from="nt2_nt6" id="morning160_25200" to="nt11_nt7" type="griddist1"/>
    <trip arrivalPos="141.77" depart="25548" departPos="135.03" from="nt13_nt14" id="morning161_25200" to="nt7_nt6" type="griddist1"/>
    <trip arrivalPos="34.88" depart="25550" departPos="102.19" from="nt11_nt7" id="morning162_25200" to="nt11_nt7" type="griddist1"/>
    <trip arrivalPos="141.87" depart="25550" departPos="90.36" from="nt16_nt12" id="morning163_25200" to="nt10_nt11" type="griddist1"/>
    <trip arrivalPos="22.05" depart="25554" departPos="121.93" from="nt10_nt14" id="morning164_25200" to="nt7_nt6" type="griddist1"/>
    <trip arrivalPos="60.76" depart="25556" departPos="142.45" from="nt9_nt13" id="morning165_25200" to="nt11_nt7" type="griddist1"/>
    <trip arrivalPos="94.49" depart="25560" departPos="36.95" from="nt8_nt7" id="morning166_25200" to="nt7_nt6" type="griddist1"/>
    <trip arrivalPos="61.81" depart="25569" departPos="24.56" from="nt15_nt11" id="morning167_25200" to="nt10_nt11" type="griddist1"/>
    <trip arrivalPos="92.38" depart="25569" departPos="112.52" from="nt14_nt13" id="morning168_25200" to="nt11_nt7" type="griddist1"/>
    <trip arrivalPos="177.52" depart="25570" departPos="30.16" from="nt11_nt10" id="morning169_25200" to="nt6_nt10" type="griddist1"/>
    <trip arrivalPos="148.43" depart="25572" departPos="60.28" from="nt5_nt1" id="morning170_25200" to="nt11_nt7" type="griddist1"/>
    <trip arrivalPos="146.18" depart="25573" departPos="55.64" from="nt15_nt16" id="morning171_25200" to="nt6_nt10" type="griddist1"/>
    <trip arrivalPos="104.60" depart="25574" departPos="175.60" from="nt11_nt7" id="morning172_25200" to="nt6_nt10" type="griddist1"/>
    <trip arrivalPos="4.78" depart="25575" departPos="123.30" from="nt6_nt10" id="morning173_25200" to="nt6_nt10" type="griddist1"/>
    <trip arrivalPos="144.06" depart="25578" departPos="145.31" from="nt14_nt13" id="morning174_25200" to="nt7_nt6" type="griddist1"/>
    <trip arrivalPos="30.56" depart="25579" departPos="108.30" from="nt16_nt15" id="morning175_25200" to="nt6_nt10" type="griddist1"/>
    <trip arrivalPos="26.48" depart="25581" departPos="156.12" from="nt2_nt3" id="morning176_25200" to="nt6_nt10" type="griddist1"/>
    <trip arrivalPos="20.40" depart="25581" departPos="175.99" from="nt3_nt4" id="morning177_25200" to="nt10_nt11" type="griddist1"/>
    <trip arrivalPos="123.74" depart="25582" departPos="11.36" from="np11_nt14" id="morning178_25200" to="nt11_nt7" type="griddist1"/>
    <trip arrivalPos="161.99" depart="25582" departPos="164.96" from="nt12_nt8" id="morning179_25200" to="nt7_nt6" type="griddist1"/>
    <trip arrivalPos="38.48" depart="25583" departPos="24.74" from="nt5_nt1" id="morning180_25200" to="nt10_nt11" type="griddist1"/>
    <trip arrivalPos="56.22" depart="25586" departPos="97.53" from="nt11_nt10" id="morning181_25200" to="nt6_nt10" type="griddist1"/>
    <trip arrivalPos="65.76" depart="25596" departPos="25.67" from="np5_nt4" id="morning182_25200" to="nt7_nt6" type="griddist1"/>
    <trip arrivalPos="124.24" depart="25597" departPos="115.28" from="nt5_nt9" id="morning183_25200" to="nt6_nt10" type="griddist1"/>
    <trip arrivalPos="103.58" depart="25597" departPos="45.75" from="nt2_nt1" id="morning184_25200" to="nt10_nt11" type="griddist1"/>
    <trip arrivalPos="53.64" depart="25598" departPos="22.32" from="np8_nt16" id="morning185_25200" to="nt7_nt6" type="griddist1"/>
    <trip arrivalPos="62.51" depart="25601" departPos="23.78" from="np7_nt12" id="morning186_25200" to="nt6_nt10" type="griddist1"/>
    <trip arrivalPos="22.62" depart="25603" departPos="49.00" from="nt8_nt4" id="morning187_25200" to="nt7_nt6" type="griddist1"/>
    <trip arrivalPos="146.65" depart="25603" departPos="181.92" from="nt3_nt4" id="morning188_25200" to="nt11_nt7" type="griddist1"/>
    <trip arrivalPos="53.38" depart="25605" departPos="53.91" from="nt9_nt10" id="morning189_25200" to="nt7_nt6" type="griddist1"/>
    <trip arrivalPos="45.95" depart="25606" departPos="82.11" from="nt4_nt3" id="morning190_25200" to="nt11_nt7" type="griddist1"/>
    <trip arrivalPos="173.17" depart="25606" departPos="99.96" from="nt14_nt13" id="morning191_25200" to="nt10_nt11" type="griddist1"/>
    <trip arrivalPos="108.92" depart="25608" departPos="110.33" from="nt3_nt7" id="morning192_25200" to="nt10_nt11" type="griddist1"/>
    <trip arrivalPos="114.32" depart="25609" departPos="39.83" from="np9_nt16" id="morning193_25200" to="nt6_nt10" type="griddist1"/>
    <trip arrivalPos="18.02" depart="25611" departPos="48.64" from="np13_nt13" id="morning194_25200" to="nt11_nt7" type="griddist1"/>
    <trip arrivalPos="172.44" depart="25611" departPos="98.62" from="nt5_nt9" id="morning195_25200" to="nt10_nt11" type="griddist1"/>
    <trip arrivalPos="88.61" depart="25611" departPos="157.41" from="nt12_nt8" id="morning196_25200" to="nt7_nt6" type="griddist1"/>
    <trip arrivalPos="119.88" depart="25613" departPos="24.09" from="np6_nt8" id="morning197_25200" to="nt7_nt6" type="griddist1"/>
    <trip arrivalPos="99.32" depart="25617" departPos="102.88" from="nt8_nt12" id="morning198_25200" to="nt10_nt11" type="griddist1"/>
    <trip arrivalPos="32.49" depart="25618" departPos="163.65" from="nt4_nt8" id="morning199_25200" to="nt7_nt6" type="griddist1"/>
    <trip arrivalPos="185.08" depart="25619" departPos="170.68" from="nt7_nt6" id="morning200_25200" to="nt10_nt11" type="griddist1"/>
    <trip arrivalPos="172.41" depart="25620" departPos="167.84" from="nt12_nt16" id="morning201_25200" to="nt11_nt7" type="griddist1"/>
    <trip arrivalPos="105.41" depart="25621" departPos="1.66" from="nt8_nt4" id="morning202_25200" to="nt7_nt6" type="griddist1"/>
    <trip arrivalPos="183.58" depart="25624" departPos="19.29" from="np16_nt1" id="morning203_25200" to="nt7_nt6" type="griddist1"/>
    <trip arrivalPos="152.51" depart="25628" departPos="174.20" from="nt15_nt16" id="morning204_25200" to="nt11_nt7" type="griddist1"/>
    <trip arrivalPos="30.16" depart="25632" departPos="20.19" from="nt14_nt10" id="morning205_25200" to="nt10_nt11" type="griddist1"/>
    <trip arrivalPos="132.00" depart="25635" departPos="33.37" from="nt14_nt10" id="morning206_25200" to="nt11_nt7" type="griddist1"/>
    <trip arrivalPos="31.45" depart="25636" departPos="135.71" from="nt6_nt10" id="morning207_25200" to="nt6_nt10" type="griddist1"/>
    <trip arrivalPos="95.64" depart="25636" departPos="148.20" from="nt7_nt11" id="morning208_25200" to="nt7_nt6" type="griddist1"/>
    <trip arrivalPos="25.20" depart="25638" departPos="12.53" from="np15_nt5" id="morning209_25200" to="nt6_nt10" type="griddist1"/>
    <trip arrivalPos="43.71" depart="25642" departPos="48.40" from="nt11_nt10" id="morning210_25200" to="nt10_nt11" type="griddist1"/>
    <trip arrivalPos="134.17" depart="25642" departPos="56.04" from="nt5_nt6" id="morning211_25200" to="nt7_nt6" type="griddist1"/>
    <trip arrivalPos="11.13" depart="25643" departPos="51.96" from="np10_nt15" id="morning212_25200" to="nt6_nt10" type="griddist1"/>
    <trip arrivalPos="90.05" depart="25644" departPos="26.19" from="np1_nt1" id="morning213_25200" to="nt11_nt7" type="griddist1"/>
    <trip arrivalPos="21.04" depart="25647" departPos="57.72" from="nt7_nt8" id="morning214_25200" to="nt6_nt10" type="griddist1"/>
    <trip arrivalPos="39.27" depart="25649" departPos="110.14" from="nt8_nt12" id="morning215_25200" to="nt11_nt7" type="griddist1"/>
    <trip arrivalPos="112.43" depart="25656" departPos="48.30" from="np2_nt2" id="morning216_25200" to="nt10_nt11" type="griddist1"/>
    <trip arrivalPos="96.32" depart="25656" departPos="84.37" from="nt12_nt8" id="morning217_25200" to="nt6_nt10" type="griddist1"/>
    <trip arrivalPos="140.08" depart="25658" departPos="45.93" from="nt3_nt2" id="morning218_25200" to="nt10_nt11" type="griddist1"/>
    <trip arrivalPos="130.62" depart="25658" departPos="80.06" from="nt7_nt3" id="morning219_25200" to="nt10_nt11" type="griddist1"/>
    <trip arrivalPos="98.14" depart="25664" departPos="4.19" from="np14_nt9" id="morning220_25200" to="nt6_nt10" type="griddist1"/>
    <trip arrivalPos="58.80" depart="25667" departPos="26.85" from="nt15_nt11" id="morning221_25200" to="nt6_nt10" type="griddist1"/>
    <trip arrivalPos="108.23" depart="25668" departPos="38.12" from="nt15_nt14" id="morning222_25200" to="nt10_nt11" type="griddist1"/>
    <trip arrivalPos="81.26" depart="25669" departPos="54.83" from="np15_nt5" id="morning223_25200" to="nt6_nt10" type="griddist1"/>
    <trip arrivalPos="82.86" depart="25669" departPos="10.35" from="nt15_nt11" id="morning224_25200" to="nt11_nt7" type="griddist1"/>