<routes>
    <trip arrivalPos="24.13" depart="36001" departPos="10.85" from="np10_nt15" id="morning0_36000" to="nt7_nt6" type="griddist1"/>
    <trip arrivalPos="4.78" depart="36002" departPos="122.69" from="nt10_nt11" id="morning1_36000" to="nt10_nt11" type="griddist1"/>
    <trip arrivalPos="60.09" depart="36004" departPos="17.84" from="np10_nt15" id="morning2_36000" to="nt7_nt6" type="griddist1"/>
    <trip arrivalPos="97.64" depart="36006" departPos="55.63" from="np5_nt4" id="morning3_36000" to="nt10_nt11" type="griddist1"/>
    <trip arrivalPos="91.97" depart="36008" departPos="139.42" from="nt5_nt1" id="morning4_36000" to="nt11_nt7" type="griddist1"/>
    <trip arrivalPos="7.77" depart="36010" departPos="64.10" from="np16_nt1" id="morning5_36000" to="nt6_nt10" type="griddist1"/>
    <trip arrivalPos="85.01" depart="36010" departPos="93.44" from="nt6_nt10" id="morning6_36000" to="nt7_nt6" type="griddist1"/>
    <trip arrivalPos="74.54" depart="36013" departPos="88.90" from="nt9_nt10" id="morning7_36000" to="nt10_nt11" type="griddist1"/>
    <trip arrivalPos="13.17" depart="36014" departPos="168.84" from="nt3_nt4" id="morning8_36000" to="nt11_nt7" type="griddist1"/>
    <trip arrivalPos="49.28" depart="36022" departPos="4.45" from="np15_nt5" id="morning9_36000" to="nt6_nt10" type="griddist1"/>
    <trip arrivalPos="178.24" depart="36024" departPos="60.35" from="nt2_nt3" id="morning10_36000" to="nt6_nt10" type="griddist1"/>
    <trip arrivalPos="17.77" depart="36026" departPos="112.37" from="nt15_nt14" id="morning11_36000" to="nt11_nt7" type="griddist1"/>
    <trip arrivalPos="142.72" depart="36029" departPos="116.64" from="nt3_nt7" id="morning12_36000" to="nt7_nt6" type="griddist1"/>
    <trip arrivalPos="42.41" depart="36032" departPos="80.92" from="nt4_nt8" id="morning13_36000" to="nt10_nt11" type="griddist1"/>
    <trip arrivalPos="17.04" depart="36033" departPos="77.21" from="nt11_nt12" id="morning14_36000" to="nt11_nt7" type="griddist1"/>
    <trip arrivalPos="27.35" depart="36038" departPos="69.47" from="nt13_nt14" id="morning15_36000" to="nt6_nt10" type="griddist1"/>
    <trip arrivalPos="17.30" depart="36038" departPos="149.05" from="nt8_nt4" id="morning16_36000" to="nt10_nt11" type="griddist1"/>
    <trip arrivalPos="99.70" depart="36039" departPos="55.04" from="np16_nt1" id="morning17_36000" to="nt6_nt10" type="griddist1"/>
    <trip arrivalPos="21.90" depart="36041" departPos="61.18" from="nt1_nt2" id="morning18_36000" to="nt6_nt10" type="griddist1"/>
    <trip arrivalPos="155.56" depart="36047" departPos="134.45" from="nt11_nt15" id="morning19_36000" to="nt6_nt10" type="griddist1"/>
    <trip arrivalPos="65.27" depart="36050" departPos="107.59" from="nt4_nt8" id="morning20_36000" to="nt7_nt6" type="griddist1"/>
    <trip arrivalPos="41.62" depart="36051" departPos="121.89" from="nt16_nt15" id="morning21_36000" to="nt10_nt11" type="griddist1"/>
    <trip arrivalPos="141.54" depart="36056" departPos="24.92" from="np16_nt1" id="morning22_36000" to="nt7_nt6" type="griddist1"/>
    <trip arrivalPos="180.88" depart="36057" departPos="156.86" from="nt16_nt15" id="morning23_36000" to="nt7_nt6" type="griddist1"/>
    <trip arrivalPos="4.70" depart="36057" departPos="119.28" from="nt6_nt5" id="morning24_36000" to="nt6_nt10" type="griddist1"/>
    <trip arrivalPos="33.49" depart="36060" departPos="47.93" from="nt8_nt4" id="morning25_36000" to="nt7_nt6" type="griddist1"/>
    <trip arrivalPos="1.09" depart="36062" departPos="60.90" from="nt3_nt7" id="morning26_36000" to="nt11_nt7" type="griddist1"/>
    <trip arrivalPos="25.42" depart="36070" departPos="71.82" from="nt7_nt3" id="morning27_36000" to="nt6_nt10" type="griddist1"/>
    <trip arrivalPos="39.93" depart="36079" departPos="138.48" from="nt2_nt3" id="morning28_36000" to="nt10_nt11" type="griddist1"/>
    <trip arrivalPos="129.31" depart="36079" departPos="66.31" from="nt12_nt8" id="morning29_36000" to="nt11_nt7" type="griddist1"/>
    <trip arrivalPos="9.43" depart="36080" departPos="15.22" from="nt5_nt9" id="morning30_36000" to="nt6_nt10" type="griddist1"/>
    <trip arrivalPos="48.76" depart="36083" departPos="43.54" from="np4_nt4" id="morning31_36000" to="nt6_nt10" type="griddist1"/>
    <trip arrivalPos="48.95" depart="36084" departPos="82.04" from="nt3_nt2" id="morning32_36000" to="nt11_nt7" type="griddist1"/>
    <trip arrivalPos="52.57" depart="36086" departPos="79.79" from="nt5_nt6" id="morning33_36000" to="nt10_nt11" type="griddist1"/>
    <trip arrivalPos="8.14" depart="36087" departPos="123.82" from="nt3_nt4" id="morning34_36000" to="nt11_nt7" type="griddist1"/>
    <trip arrivalPos="54.01" depart="36089" departPos="1.38" from="nt12_nt16" id="morning35_36000" to="nt6_nt10" type="griddist1"/>
    <trip arrivalPos="60.90" depart="36096" departPos="19.16" from="np7_nt12" id="morning36_36000" to="nt10_nt11" type="griddist1"/>
    <trip arrivalPos="68.13" depart="36100" departPos="13.18" from="np10_nt15" id="morning37_36000" to="nt6_nt10" type="griddist1"/>
    <trip arrivalPos="144.47" depart="36101" departPos="154.67" from="nt4_nt3" id="morning38_36000" to="nt6_nt10" type="griddist1"/>
    <trip arrivalPos="3.48" depart="36102" departPos="2.87" from="np14_nt9" id="morning39_36000" to="nt7_nt6" type="griddist1"/>
    <trip arrivalPos="106.42" depart="36102" departPos="103.18" from="nt8_nt12" id="morning40_36000" to="nt7_nt6" type="griddist1"/>
    <trip arrivalPos="3.74" depart="36105" departPos="21.38" from="nt4_nt3" id="morning41_36000" to="nt11_nt7" type="griddist1"/>
    <trip arrivalPos="154.42" depart="36105" departPos="114.72" from="nt11_nt10" id="morning42_36000" to="nt7_nt6" type="griddist1"/>
    <trip arrivalPos="45.16" depart="36108" departPos="151.33" from="nt8_nt12" id="morning43_36000" to="nt10_nt11" type="griddist1"/>
    <trip arrivalPos="55.60" depart="36110" departPos="73.45" from="nt1_nt2" id="morning44_36000" to="nt6_nt10" type="griddist1"/>
    <trip arrivalPos="91.48" depart="36111" departPos="31.21" from="nt11_nt12" id="morning45_36000" to="nt11_nt7" type="griddist1"/>
    <trip arrivalPos="62.61" depart="36113" departPos="58.52" from="np1_nt1" id="morning46_36000" to="nt6_nt10" type="griddist1"/>
    <trip arrivalPos="43.85" depart="36117" departPos="146.05" from="nt4_nt8" id="morning47_36000" to="nt7_nt6" type="griddist1"/>
    <trip arrivalPos="141.10" depart="36118" departPos="38.91" from="np3_nt3" id="morning48_36000" to="nt10_nt11" type="griddist1"/>
    <trip arrivalPos="91.71" depart="36118" departPos="138.49" from="nt2_nt6" id="morning49_36000" to="nt10_nt11" type="griddist1"/>
    <trip arrivalPos="171.52" depart="36118" departPos="83.32" from="nt5_nt6" id="morning50_36000" to="nt7_nt6" type="griddist1"/>
    <trip arrivalPos="154.87" depart="36122" departPos="115.91" from="nt16_nt15" id="morning51_36000" to="nt6_nt10" type="griddist1"/>
    <trip arrivalPos="82.07" depart="36127" departPos="12.67" from="nt2_nt3" id="morning52_36000" to="nt10_nt11" type="griddist1"/>
    <trip arrivalPos="90.91" depart="36128" departPos="10.43" from="nt10_nt9" id="morning53_36000" to="nt11_nt7" type="griddist1"/>
    <trip arrivalPos="149.04" depart="36130" departPos="10.56" from="nt10_nt9" id="morning54_36000" to="nt11_nt7" type="griddist1"/>
    <trip arrivalPos="114.15" depart="36131" departPos="57.99" from="np14_nt9" id="morning55_36000" to="nt7_nt6" type="griddist1"/>
    <trip arrivalPos="141.89" depart="36133" departPos="99.33" from="nt15_nt11" id="morning56_36000" to="nt11_nt7" type="griddist1"/>
    <trip arrivalPos="116.81" depart="36134" departPos="150.30" from="nt7_nt8" id="morning57_36000" to="nt11_nt7" type="griddist1"/>
    <trip arrivalPos="11.09" depart="36136" departPos="28.00" from="nt11_nt10" id="morning58_36000" to="nt11_nt7" type="griddist1"/>
    <trip arrivalPos="132.58" depart="36147" departPos="23.29" from="np16_nt1" id="morning59_36000" to="nt7_nt6" type="griddist1"/>
    <trip arrivalPos="81.25" depart="36147" departPos="44.40" from="nt15_nt11" id="morning60_36000" to="nt10_nt11" type="griddist1"/>
    <trip arrivalPos="66.82" depart="36150" departPos="28.45" from="nt13_nt9" id="morning61_36000" to="nt6_nt10" type="griddist1"/>
    <trip arrivalPos="107.14" depart="36151" departPos="60.64" from="nt10_nt6" id="morning62_36000" to="nt11_nt7" type="griddist1"/>
    <trip arrivalPos="16.94" depart="36152" departPos="11.81" from="nt6_nt10" id="morning63_36000" to="nt6_nt10" type="griddist1"/>
    <trip arrivalPos="117.66" depart="36156" departPos="134.32" from="nt3_nt4" id="morning64_36000" to="nt11_nt7" type="griddist1"/>
    <trip arrivalPos="108.16" depart="36158" departPos="59.74" from="nt8_nt12" id="morning65_36000" to="nt7_nt6" type="griddist1"/>
    <trip arrivalPos="125.17" depart="36161" departPos="62.51" from="np3_nt3" id="morning66_36000" to="nt11_nt7" type="griddist1"/>
    <trip arrivalPos="55.48" depart="36162" departPos="168.09" from="nt12_nt16" id="morning67_36000" to="nt6_nt10" type="griddist1"/>
    <trip arrivalPos="124.37" depart="36163" departPos="150.93" from="nt12_nt11" id="morning68_36000" to="nt7_nt6" type="griddist1"/>
    <trip arrivalPos="94.33" depart="36163" departPos="127.21" from="nt6_nt7" id="morning69_36000" to="nt6_nt10" type="griddist1"/>
    <trip arrivalPos="64.98" depart="36164" departPos="64.84" from="nt2_nt6" id="morning70_36000" to="nt11_nt7" type="griddist1"/>
    <trip arrivalPos="90.25" depart="36164" departPos="71.08" from="np5_nt4" id="morning71_36000" to="nt10_nt11" type="griddist1"/>
    <trip arrivalPos="156.73" depart="36168" departPos="5.79" from="np8_nt16" id="morning72_36000" to="nt10_nt11" type="griddist1"/>
    <trip arrivalPos="164.01" depart="36171" departPos="56.62" from="np16_nt1" id="morning73_36000" to="nt7_nt6" type="griddist1"/>
    <trip arrivalPos="23.48" depart="36177" departPos="57.47" from="np12_nt13" id="morning74_36000" to="nt11_nt7" type="griddist1"/>
    <trip arrivalPos="143.12" depart="36178" departPos="154.30" from="nt12_nt11" id="morning75_36000" to="nt10_nt11" type="griddist1"/>
    <trip arrivalPos="76.26" depart="36180" departPos="78.43" from="nt6_nt2" id="morning76_36000" to="nt10_nt11" type="griddist1"/>
    <trip arrivalPos="52.88" depart="36181" departPos="82.44" from="nt3_nt4" id="morning77_36000" to="nt10_nt11" type="griddist1"/>
    <trip arrivalPos="55.46" depart="36185" departPos="95.69" from="nt5_nt1" id="morning78_36000" to="nt11_nt7" type="griddist1"/>
    <trip arrivalPos="65.92" depart="36186" departPos="149.65" from="nt6_nt2" id="morning79_36000" to="nt11_nt7" type="griddist1"/>
    <trip arrivalPos="52.30" depart="36187" departPos="85.69" from="nt8_nt7" id="morning80_36000" to="nt7_nt6" type="griddist1"/>
    <trip arrivalPos="146.39" depart="36188" departPos="179.34" from="nt12_nt11" id="morning81_36000" to="nt6_nt10" type="griddist1"/>
    <trip arrivalPos="119.00" depart="36189" departPos="44.80" from="nt6_nt2" id="morning82_36000" to="nt10_nt11" type="griddist1"/>
    <trip arrivalPos="151.58" depart="36192" departPos="18.38" from="nt7_nt3" id="morning83_36000" to="nt6_nt10" type="griddist1"/>
    <trip arrivalPos="48.88" depart="36200" departPos="136.75" from="nt7_nt11" id="morning84_36000" to="nt11_nt7" type="griddist1"/>
    <trip arrivalPos="175.65" depart="36205" departPos="81.19" from="nt7_nt8" id="morning85_36000" to="nt10_nt11" type="griddist1"/>
    <trip arrivalPos="4.78" depart="36205" departPos="26.22" from="np8_nt16" id="morning86_36000" to="nt11_nt7" type="griddist1"/>
    <trip arrivalPos="178.22" depart="36205" departPos="15.99" from="np13_nt13" id="morning87_36000" to="nt6_nt10" type="griddist1"/>
    <trip arrivalPos="155.75" depart="36207" departPos="166.80" from="nt11_nt7" id="morning88_36000" to="nt10_nt11" type="griddist1"/>
    <trip arrivalPos="53.24" depart="36207" departPos="24.66" from="nt2_nt6" id="morning89_36000" to="nt7_nt6" type="griddist1"/>
    <trip arrivalPos="126.43" depart="36208" departPos="25.76" from="nt6_nt7" id="morning90_36000" to="nt6_nt10" type="griddist1"/>
    <trip arrivalPos="47.50" depart="36210" departPos="14.20" from="nt13_nt9" id="morning91_36000" to="nt10_nt11" type="griddist1"/>
    <trip arrivalPos="94.58" depart="36211" departPos="134.97" from="nt6_nt7" id="morning92_36000" to="nt6_nt10" type="griddist1"/>
    <trip arrivalPos="8.56" depart="36213" departPos="19.45" from="np1_nt1" id="morning93_36000" to="nt11_nt7" type="griddist1"/>
    <trip arrivalPos="20.58" depart="36219" departPos="81.91" from="nt12_nt8" id="morning94_36000" to="nt7_nt6" type="griddist1"/>
    <trip arrivalPos="92.36" depart="36221" departPos="3.05" from="nt7_nt8" id="morning95_36000" to="nt6_nt10" type="griddist1"/>
    <trip arrivalPos="114.11" depart="36222" departPos="32.19" from="np9_nt16" id="morning96_36000" to="nt10_nt11" type="griddist1"/>
    <trip arrivalPos="15.34" depart="36223" departPos="49.83" from="np9_nt16" id="morning97_36000" to="nt11_nt7" type="griddist1"/>
    <trip arrivalPos="94.16" depart="36229" departPos="94.27" from="nt9_nt13" id="morning98_36000" to="nt10_nt11" type="griddist1"/>
    <trip arrivalPos="84.25" depart="36229" departPos="69.97" from="nt9_nt5" id="morning99_36000" to="nt6_nt10" type="griddist1"/>
    <trip arrivalPos="3.01" depart="36232" departPos="47.08" from="nt2_nt3" id="morning100_36000" to="nt7_nt6" type="griddist1"/>
    <trip arrivalPos="112.58" depart="36234" departPos="131.34" from="nt6_nt10" id="morning101_36000" to="nt11_nt7" type="griddist1"/>
    <trip arrivalPos="7.94" depart="36237" departPos="59.59" from="nt5_nt9" id="morning102_36000" to="nt6_nt10" type="griddist1"/>
    <trip arrivalPos="144.61" depart="36239" departPos="32.50" from="nt15_nt16" id="morning103_36000" to="nt7_nt6" type="griddist1"/>
    <trip arrivalPos="145.42" depart="36240" departPos="113.21" from="nt14_nt10" id="morning104_36000" to="nt6_nt10" type="griddist1"/>
    <trip arrivalPos="54.46" depart="36241" departPos="31.03" from="np14_nt9" id="morning105_36000" to="nt7_nt6" type="griddist1"/>
    <trip arrivalPos="173.23" depart="36244" departPos="3.14" from="np12_nt13" id="morning106_36000" to="nt10_nt11" type="griddist1"/>
    <trip arrivalPos="47.02" depart="36246" departPos="97.31" from="nt15_nt11" id="morning107_36000" to="nt7_nt6" type="griddist1"/>
    <trip arrivalPos="144.92" depart="36248" departPos="66.25" from="nt5_nt6" id="morning108_36000" to="nt10_nt11" type="griddist1"/>
    <trip arrivalPos="65.95" depart="36248" departPos="22.31" from="nt7_nt3" id="morning109_36000" to="nt11_nt7" type="griddist1"/>
    <trip arrivalPos="69.29" depart="36249" departPos="166.04" from="nt7_nt6" id="morning110_36000" to="nt6_nt10" type="griddist1"/>
    <trip arrivalPos="165.64" depart="36255" departPos="89.16" from="nt9_nt13" id="morning111_36000" to="nt11_nt7" type="griddist1"/>
    <trip arrivalPos="14.65" depart="36258" departPos="134.95" from="nt15_nt14" id="morning112_36000" to="nt7_nt6" type="griddist1"/>
    <trip arrivalPos="59.62" depart="36260" departPos="97.75" from="nt1_nt5" id="morning113_36000" to="nt7_nt6" type="griddist1"/>
    <trip arrivalPos="107.99" depart="36262" departPos="20.78" from="np15_nt5" id="morning114_36000" to="nt6_nt10" type="griddist1"/>
    <trip arrivalPos="7.59" depart="36263" departPos="65.25" from="nt13_nt14" id="morning115_36000" to="nt6_nt10" type="griddist1"/>
    <trip arrivalPos="49.20" depart="36267" departPos="178.87" from="nt7_nt3" id="morning116_36000" to="nt11_nt7" type="griddist1"/>
    <trip arrivalPos="118.32" depart="36271" departPos="13.45" from="nt9_nt13" id="morning117_36000" to="nt7_nt6" type="griddist1"/>
    <trip arrivalPos="176.84" depart="36276" departPos="121.75" from="nt11_nt7" id="morning118_36000" to="nt7_nt6" type="griddist1"/>
    <trip arrivalPos="6.24" depart="36278" departPos="50.47" from="np3_nt3" id="morning119_36000" to="nt6_nt10" type="griddist1"/>
    <trip arrivalPos="71.06" depart="36280" departPos="24.84" from="np14_nt9" id="morning120_36000" to="nt7_nt6" type="griddist1"/>
    <trip arrivalPos="170.03" depart="36280" departPos="126.03" from="nt16_nt15" id="morning121_36000" to="nt6_nt10" type="griddist1"/>
    <trip arrivalPos="98.27" depart="36281" departPos="102.85" from="nt11_nt7" id="morning122_36000" to="nt7_nt6" type="griddist1"/>
    <trip arrivalPos="20.33" depart="36281" departPos="44.73" from="nt12_nt16" id="morning123_36000" to="nt6_nt10" type="griddist1"/>
    <trip arrivalPos="100.65" depart="36281" departPos="69.35" from="nt5_nt1" id="morning124_36000" to="nt11_nt7" type="griddist1"/>
    <trip arrivalPos="178.55" depart="36282" departPos="82.83" from="nt10_nt11" id="morning125_36000" to="nt11_nt7" type="griddist1"/>
    <trip arrivalPos="22.76" depart="36283" departPos="88.02" from="nt10_nt6" id="morning126_36000" to="nt7_nt6" type="griddist1"/>
    <trip arrivalPos="79.76" depart="36284" departPos="161.04" from="nt7_nt11" id="morning127_36000" to="nt11_nt7" type="griddist1"/>
    <trip arrivalPos="57.27" depart="36284" departPos="57.33" from="np15_nt5" id="morning128_36000" to="nt6_nt10" type="griddist1"/>
    <trip arrivalPos="165.43" depart="36285" departPos="97.16" from="nt11_nt15" id="morning129_36000" to="nt10_nt11" type="griddist1"/>
    <trip arrivalPos="114.28" depart="36286" departPos="166.18" from="nt7_nt11" id="morning130_36000" to="nt6_nt10" type="griddist1"/>
    <trip arrivalPos="36.02" depart="36290" departPos="21.75" from="nt6_nt10" id="morning131_36000" to="nt6_nt10" type="griddist1"/>
    <trip arrivalPos="102.83" depart="36290" departPos="1.70" from="np2_nt2" id="morning132_36000" to="nt7_nt6" type="griddist1"/>
    <trip arrivalPos="113.58" depart="36291" departPos="98.86" from="nt11_nt7" id="morning133_36000" to="nt7_nt6" type="griddist1"/>
    <trip arrivalPos="128.82" depart="36292" departPos="67.77" from="np15_nt5" id="morning134_36000" to="nt11_nt7" type="griddist1"/>
    <trip arrivalPos="13.69" depart="36292" departPos="152.81" from="nt15_nt14" id="morning135_36000" to="nt7_nt6" type="griddist1"/>
    <trip arrivalPos="121.88" depart="36297" departPos="80.64" from="nt9_nt13" id="morning136_36000" to="nt6_nt10" type="griddist1"/>
    <trip arrivalPos="118.75" depart="36298" departPos="139.82" from="nt11_nt15" id="morning137_36000" to="nt7_nt6" type="griddist1"/>
    <trip arrivalPos="169.03" depart="36300" departPos="32.45" from="np5_nt4" id="morning138_36000" to="nt7_nt6" type="griddist1"/>
    <trip arrivalPos="30.56" depart="36302" departPos="10.37" from="np13_nt13" id="morning139_36000" to="nt10_nt11" type="griddist1"/>
    <trip arrivalPos="168.61" depart="36303" departPos="64.22" from="nt11_nt10" id="morning140_36000" to="nt6_nt10" type="griddist1"/>
    <trip arrivalPos="117.87" depart="36306" departPos="46.51" from="nt7_nt8" id="morning141_36000" to="nt7_nt6" type="griddist1"/>
    <trip arrivalPos="99.01" depart="36307" departPos="54.27" from="nt16_nt12" id="morning142_36000" to="nt10_nt11" type="griddist1"/>
    <trip arrivalPos="28.62" depart="36308" departPos="168.74" from="nt15_nt11" id="morning143_36000" to="nt10_nt11" type="griddist1"/>
    <trip arrivalPos="150.98" depart="36308" departPos="112.31" from="nt3_nt2" id="morning144_36000" to="nt6_nt10" type="griddist1"/>
    <trip arrivalPos="8.44" depart="36308" departPos="5.27" from="nt16_nt15" id="morning145_36000" to="nt7_nt6" type="griddist1"/>
    <trip arrivalPos="137.44" depart="36311" departPos="116.68" from="nt2_nt6" id="morning146_36000" to="nt6_nt10" type="griddist1"/>
    <trip arrivalPos="112.39" depart="36317" departPos="89.25" from="nt12_nt8" id="morning147_36000" to="nt6_nt10" type="griddist1"/>
    <trip arrivalPos="149.35" depart="36322" departPos="86.54" from="nt10_nt6" id="morning148_36000" to="nt7_nt6" type="griddist1"/>
    <trip arrivalPos="10.74" depart="36322" departPos="13.54" from="nt3_nt4" id="morning149_36000" to="nt11_nt7" type="griddist1"/>
    <trip arrivalPos="108.71" depart="36323" departPos="36.56" from="nt13_nt9" id="morning150_36000" to="nt11_nt7" type="griddist1"/>
    <trip arrivalPos="154.25" depart="36326" departPos="136.27" from="nt11_nt10" id="morning151_36000" to="nt6_nt10" type="griddist1"/>
    <trip arrivalPos="104.24" depart="36328" departPos="66.40" from="nt9_nt13" id="morning152_36000" to="nt10_nt11" type="griddist1"/>
    <trip arrivalPos="44.43" depart="36328" departPos="49.64" from="nt11_nt10" id="morning153_36000" to="nt11_nt7" type="griddist1"/>
    <trip arrivalPos="110.28" depart="36329" departPos="26.05" from="np16_nt1" id="morning154_36000" to="nt11_nt7" type="griddist1"/>
    <trip arrivalPos="60.77" depart="36330" departPos="11.98" from="np9_nt16" id="morning155_36000" to="nt7_nt6" type="griddist1"/>
    <trip arrivalPos="89.29" depart="36332" departPos="141.64" from="nt16_nt15" id="morning156_36000" to="nt11_nt7" type="griddist1"/>
    <trip arrivalPos="4.15" depart="36335" departPos="55.29" from="nt15_nt11" id="morning157_36000" to="nt11_nt7" type="griddist1"/>
    <trip arrivalPos="38.55" depart="36335" departPos="179.42" from="nt8_nt7" id="morning158_36000" to="nt6_nt10" type="griddist1"/>
    <trip arrivalPos="163.76" depart="36343" departPos="88.69" from="nt11_nt15" id="morning159_36000" to="nt10_nt11" type="griddist1"/>
    <trip arrivalPos="151.81" depart="36347" departPos="96.17" from="nt2_nt6" id="morning160_36000" to="nt11_nt7" type="griddist1"/>
    <trip arrivalPos="141.77" depart="36348" departPos="135.03" from="nt13_nt14" id="morning161_36000" to="nt7_nt6" type="griddist1"/>
    <trip arrivalPos="34.88" depart="36350" departPos="102.19" from="nt11_nt7" id="morning162_36000" to="nt11_nt7" type="griddist1"/>
    <trip arrivalPos="141.87" depart="36350" departPos="90.36" from="nt16_nt12" id="morning163_36000" to="nt10_nt11" type="griddist1"/>
    <trip arrivalPos="22.05" depart="36354" departPos="121.93" from="nt10_nt14" id="morning164_36000" to="nt7_nt6" type="griddist1"/>
    <trip arrivalPos="60.76" depart="36356" departPos="142.45" from="nt9_nt13" id="morning165_36000" to="nt11_nt7" type="griddist1"/>
    <trip arrivalPos="94.49" depart="36360" departPos="36.95" from="nt8_nt7" id="morning166_36000" to="nt7_nt6" type="griddist1"/>
    <trip arrivalPos="61.81" depart="36369" departPos="24.56" from="nt15_nt11" id="morning167_36000" to="nt10_nt11" type="griddist1"/>
    <trip arrivalPos="92.38" depart="36369" departPos="112.52" from="nt14_nt13" id="morning168_36000" to="nt11_nt7" type="griddist1"/>
    <trip arrivalPos="177.52" depart="36370" departPos="30.16" from="nt11_nt10" id="morning169_36000" to="nt6_nt10" type="griddist1"/>
    <trip arrivalPos="148.43" depart="36372" departPos="60.28" from="nt5_nt1" id="morning170_36000" to="nt11_nt7" type="griddist1"/>
    <trip arrivalPos="146.18" depart="36373" departPos="55.64" from="nt15_nt16" id="morning171_36000" to="nt6_nt10" type="griddist1"/>
    <trip arrivalPos="104.60" depart="36374" departPos="175.60" from="nt11_nt7" id="morning172_36000" to="nt6_nt10" type="griddist1"/>
    <trip arrivalPos="4.78" depart="36375" departPos="123.30" from="nt6_nt10" id="morning173_36000" to="nt6_nt10" type="griddist1"/>
    <trip arrivalPos="144.06" depart="36378" departPos="145.31" from="nt14_nt13" id="morning174_36000" to="nt7_nt6" type="griddist1"/>
    <trip arrivalPos="30.56" depart="36379" departPos="108.30" from="nt16_nt15" id="morning175_36000" to="nt6_nt10" type="griddist1"/>
    <trip arrivalPos="26.48" depart="36381" departPos="156.12" from="nt2_nt3" id="morning176_36000" to="nt6_nt10" type="griddist1"/>
    <trip arrivalPos="20.40" depart="36381" departPos="175.99" from="nt3_nt4" id="morning177_36000" to="nt10_nt11" type="griddist1"/>
    <trip arrivalPos="123.74" depart="36382" departPos="11.36" from="np11_nt14" id="morning178_36000" to="nt11_nt7" type="griddist1"/>
    <trip arrivalPos="161.99" depart="36382" departPos="164.96" from="nt12_nt8" id="morning179_36000" to="nt7_nt6" type="griddist1"/>
    <trip arrivalPos="38.48" depart="36383" departPos="24.74" from="nt5_nt1" id="morning180_36000" to="nt10_nt11" type="griddist1"/>
    <trip arrivalPos="56.22" depart="36386" departPos="97.53" from="nt11_nt10" id="morning181_36000" to="nt6_nt10" type="griddist1"/>
    <trip arrivalPos="65.76" depart="36396" departPos="25.67" from="np5_nt4" id="morning182_36000" to="nt7_nt6" type="griddist1"/>
    <trip arrivalPos="124.24" depart="36397" departPos="115.28" from="nt5_nt9" id="morning183_36000" to="nt6_nt10" type="griddist1"/>
    <trip arrivalPos="103.58" depart="36397" departPos="45.75" from="nt2_nt1" id="morning184_36000" to="nt10_nt11" type="griddist1"/>
    <trip arrivalPos="53.64" depart="36398" departPos="22.32" from="np8_nt16" id="morning185_36000" to="nt7_nt6" type="griddist1"/>
    <trip arrivalPos="62.51" depart="36401" departPos="23.78" from="np7_nt12" id="morning186_36000" to="nt6_nt10" type="griddist1"/>
    <trip arrivalPos="22.62" depart="36403" departPos="49.00" from="nt8_nt4" id="morning187_36000" to="nt7_nt6" type="griddist1"/>
    <trip arrivalPos="146.65" depart="36403" departPos="181.92" from="nt3_nt4" id="morning188_36000" to="nt11_nt7" type="griddist1"/>
    <trip arrivalPos="53.38" depart="36405" departPos="53.91" from="nt9_nt10" id="morning189_36000" to="nt7_nt6" type="griddist1"/>
    <trip arrivalPos="45.95" depart="36406" departPos="82.11" from="nt4_nt3" id="morning190_36000" to="nt11_nt7" type="griddist1"/>
    <trip arrivalPos="173.17" depart="36406" departPos="99.96" from="nt14_nt13" id="morning191_36000" to="nt10_nt11" type="griddist1"/>
    <trip arrivalPos="108.92" depart="36408" departPos="110.33" from="nt3_nt7" id="morning192_36000" to="nt10_nt11" type="griddist1"/>
    <trip arrivalPos="114.32" depart="36409" departPos="39.83" from="np9_nt16" id="morning193_36000" to="nt6_nt10" type="griddist1"/>
    <trip arrivalPos="18.02" depart="36411" departPos="48.64" from="np13_nt13" id="morning194_36000" to="nt11_nt7" type="griddist1"/>
    <trip arrivalPos="172.44" depart="36411" departPos="98.62" from="nt5_nt9" id="morning195_36000" to="nt10_nt11" type="griddist1"/>
    <trip arrivalPos="88.61" depart="36411" departPos="157.41" from="nt12_nt8" id="morning196_36000" to="nt7_nt6" type="griddist1"/>
    <trip arrivalPos="119.88" depart="36413" departPos="24.09" from="np6_nt8" id="morning197_36000" to="nt7_nt6" type="griddist1"/>
    <trip arrivalPos="99.32" depart="36417" departPos="102.88" from="nt8_nt12" id="morning198_36000" to="nt10_nt11" type="griddist1"/>
    <trip arrivalPos="32.49" depart="36418" departPos="163.65" from="nt4_nt8" id="morning199_36000" to="nt7_nt6" type="griddist1"/>
    <trip arrivalPos="185.08" depart="36419" departPos="170.68" from="nt7_nt6" id="morning200_36000" to="nt10_nt11" type="griddist1"/>
    <trip arrivalPos="172.41" depart="36420" departPos="167.84" from="nt12_nt16" id="morning201_36000" to="nt11_nt7" type="griddist1"/>
    <trip arrivalPos="105.41" depart="36421" departPos="1.66" from="nt8_nt4" id="morning202_36000" to="nt7_nt6" type="griddist1"/>
    <trip arrivalPos="183.58" depart="36424" departPos="19.29" from="np16_nt1" id="morning203_36000" to="nt7_nt6" type="griddist1"/>
    <trip arrivalPos="152.51" depart="36428" departPos="174.20" from="nt15_nt16" id="morning204_36000" to="nt11_nt7" type="griddist1"/>
    <trip arrivalPos="30.16" depart="36432" departPos="20.19" from="nt14_nt10" id="morning205_36000" to="nt10_nt11" type="griddist1"/>
    <trip arrivalPos="132.00" depart="36435" departPos="33.37" from="nt14_nt10" id="morning206_36000" to="nt11_nt7" type="griddist1"/>
    <trip arrivalPos="31.45" depart="36436" departPos="135.71" from="nt6_nt10" id="morning207_36000" to="nt6_nt10" type="griddist1"/>
    <trip arrivalPos="95.64" depart="36436" departPos="148.20" from="nt7_nt11" id="morning208_36000" to="nt7_nt6" type="griddist1"/>
    <trip arrivalPos="25.20" depart="36438" departPos="12.53" from="np15_nt5" id="morning209_36000" to="nt6_nt10" type="griddist1"/>
    <trip arrivalPos="43.71" depart="36442" departPos="48.40" from="nt11_nt10" id="morning210_36000" to="nt10_nt11" type="griddist1"/>
    <trip arrivalPos="134.17" depart="36442" departPos="56.04" from="nt5_nt6" id="morning211_36000" to="nt7_nt6" type="griddist1"/>
    <trip arrivalPos="11.13" depart="36443" departPos="51.96" from="np10_nt15" id="morning212_36000" to="nt6_nt10" type="griddist1"/>
    <trip arrivalPos="90.05" depart="36444" departPos="26.19" from="np1_nt1" id="morning213_36000" to="nt11_nt7" type="griddist1"/>
    <trip arrivalPos="21.04" depart="36447" departPos="57.72" from="nt7_nt8" id="morning214_36000" to="nt6_nt10" type="griddist1"/>
    <trip arrivalPos="39.27" depart="36449" departPos="110.14" from="nt8_nt12" id="morning215_36000" to="nt11_nt7" type="griddist1"/>
    <trip arrivalPos="112.43" depart="36456" departPos="48.30" from="np2_nt2" id="morning216_36000" to="nt10_nt11" type="griddist1"/>
    <trip arrivalPos="96.32" depart="36456" departPos="84.37" from="nt12_nt8" id="morning217_36000" to="nt6_nt10" type="griddist1"/>
    <trip arrivalPos="140.08" depart="36458" departPos="45.93" from="nt3_nt2" id="morning218_36000" to="nt10_nt11" type="griddist1"/>
    <trip arrivalPos="130.62" depart="36458" departPos="80.06" from="nt7_nt3" id="morning219_36000" to="nt10_nt11" type="griddist1"/>
    <trip arrivalPos="98.14" depart="36464" departPos="4.19" from="np14_nt9" id="morning220_36000" to="nt6_nt10" type="griddist1"/>
    <trip arrivalPos="58.80" depart="36467" departPos="26.85" from="nt15_nt11" id="morning221_36000" to="nt6_nt10" type="griddist1"/>
    <trip arrivalPos="108.23" depart="36468" departPos="38.12" from="nt15_nt14" id="morning222_36000" to="nt10_nt11" type="griddist1"/>
    <trip arrivalPos="81.26" depart="36469" departPos="54.83" from="np15_nt5" id="morning223_36000" to="nt6_nt10" type="griddist1"/>
    <trip arrivalPos="82.86" depart="36469" departPos="10.35" from="nt15_nt11" id="morning224_36000" to="nt11_nt7" type="griddist1"/>