<routes>
    <trip arrivalPos="24.13" depart="28801" departPos="10.85" from="np10_nt15" id="morning0_28800" to="nt7_nt6" type="griddist1"/>
    <trip arrivalPos="4.78" depart="28802" departPos="122.69" from="nt10_nt11" id="morning1_28800" to="nt10_nt11" type="griddist1"/>
    <trip arrivalPos="60.09" depart="28804" departPos="17.84" from="np10_nt15" id="morning2_28800" to="nt7_nt6" type="griddist1"/>
    <trip arrivalPos="97.64" depart="28806" departPos="55.63" from="np5_nt4" id="morning3_28800" to="nt10_nt11" type="griddist1"/>
    <trip arrivalPos="91.97" depart="28808" departPos="139.42" from="nt5_nt1" id="morning4_28800" to="nt11_nt7" type="griddist1"/>
    <trip arrivalPos="7.77" depart="28810" departPos="64.10" from="np16_nt1" id="morning5_28800" to="nt6_nt10" type="griddist1"/>
    <trip arrivalPos="85.01" depart="28810" departPos="93.44" from="nt6_nt10" id="morning6_28800" to="nt7_nt6" type="griddist1"/>
    <trip arrivalPos="74.54" depart="28813" departPos="88.90" from="nt9_nt10" id="morning7_28800" to="nt10_nt11" type="griddist1"/>
    <trip arrivalPos="13.17" depart="28814" departPos="168.84" from="nt3_nt4" id="morning8_28800" to="nt11_nt7" type="griddist1"/>
    <trip arrivalPos="49.28" depart="28822" departPos="4.45" from="np15_nt5" id="morning9_28800" to="nt6_nt10" type="griddist1"/>
    <trip arrivalPos="178.24" depart="28824" departPos="60.35" from="nt2_nt3" id="morning10_28800" to="nt6_nt10" type="griddist1"/>
    <trip arrivalPos="17.77" depart="28826" departPos="112.37" from="nt15_nt14" id="morning11_28800" to="nt11_nt7" type="griddist1"/>
    <trip arrivalPos="142.72" depart="28829" departPos="116.64" from="nt3_nt7" id="morning12_28800" to="nt7_nt6" type="griddist1"/>
    <trip arrivalPos="42.41" depart="28832" departPos="80.92" from="nt4_nt8" id="morning13_28800" to="nt10_nt11" type="griddist1"/>
    <trip arrivalPos="17.04" depart="28833" departPos="77.21" from="nt11_nt12" id="morning14_28800" to="nt11_nt7" type="griddist1"/>
    <trip arrivalPos="27.35" depart="28838" departPos="69.47" from="nt13_nt14" id="morning15_28800" to="nt6_nt10" type="griddist1"/>
    <trip arrivalPos="17.30" depart="28838" departPos="149.05" from="nt8_nt4" id="morning16_28800" to="nt10_nt11" type="griddist1"/>
    <trip arrivalPos="99.70" depart="28839" departPos="55.04" from="np16_nt1" id="morning17_28800" to="nt6_nt10" type="griddist1"/>
    <trip arrivalPos="21.90" depart="28841" departPos="61.18" from="nt1_nt2" id="morning18_28800" to="nt6_nt10" type="griddist1"/>
    <trip arrivalPos="155.56" depart="28847" departPos="134.45" from="nt11_nt15" id="morning19_28800" to="nt6_nt10" type="griddist1"/>
    <trip arrivalPos="65.27" depart="28850" departPos="107.59" from="nt4_nt8" id="morning20_28800" to="nt7_nt6" type="griddist1"/>
    <trip arrivalPos="41.62" depart="28851" departPos="121.89" from="nt16_nt15" id="morning21_28800" to="nt10_nt11" type="griddist1"/>
    <trip arrivalPos="141.54" depart="28856" departPos="24.92" from="np16_nt1" id="morning22_28800" to="nt7_nt6" type="griddist1"/>
    <trip arrivalPos="180.88" depart="28857" departPos="156.86" from="nt16_nt15" id="morning23_28800" to="nt7_nt6" type="griddist1"/>
    <trip arrivalPos="4.70" depart="28857" departPos="119.28" from="nt6_nt5" id="morning24_28800" to="nt6_nt10" type="griddist1"/>
    <trip arrivalPos="33.49" depart="28860" departPos="47.93" from="nt8_nt4" id="morning25_28800" to="nt7_nt6" type="griddist1"/>
    <trip arrivalPos="1.09" depart="28862" departPos="60.90" from="nt3_nt7" id="morning26_28800" to="nt11_nt7" type="griddist1"/>
    <trip arrivalPos="25.42" depart="28870" departPos="71.82" from="nt7_nt3" id="morning27_28800" to="nt6_nt10" type="griddist1"/>
    <trip arrivalPos="39.93" depart="28879" departPos="138.48" from="nt2_nt3" id="morning28_28800" to="nt10_nt11" type="griddist1"/>
    <trip arrivalPos="129.31" depart="28879" departPos="66.31" from="nt12_nt8" id="morning29_28800" to="nt11_nt7" type="griddist1"/>
    <trip arrivalPos="9.43" depart="28880" departPos="15.22" from="nt5_nt9" id="morning30_28800" to="nt6_nt10" type="griddist1"/>
    <trip arrivalPos="48.76" depart="28883" departPos="43.54" from="np4_nt4" id="morning31_28800" to="nt6_nt10" type="griddist1"/>
    <trip arrivalPos="48.95" depart="28884" departPos="82.04" from="nt3_nt2" id="morning32_28800" to="nt11_nt7" type="griddist1"/>
    <trip arrivalPos="52.57" depart="28886" departPos="79.79" from="nt5_nt6" id="morning33_28800" to="nt10_nt11" type="griddist1"/>
    <trip arrivalPos="8.14" depart="28887" departPos="123.82" from="nt3_nt4" id="morning34_28800" to="nt11_nt7" type="griddist1"/>
    <trip arrivalPos="54.01" depart="28889" departPos="1.38" from="nt12_nt16" id="morning35_28800" to="nt6_nt10" type="griddist1"/>
    <trip arrivalPos="60.90" depart="28896" departPos="19.16" from="np7_nt12" id="morning36_28800" to="nt10_nt11" type="griddist1"/>
    <trip arrivalPos="68.13" depart="28900" departPos="13.18" from="np10_nt15" id="morning37_28800" to="nt6_nt10" type="griddist1"/>
    <trip arrivalPos="144.47" depart="28901" departPos="154.67" from="nt4_nt3" id="morning38_28800" to="nt6_nt10" type="griddist1"/>
    <trip arrivalPos="3.48" depart="28902" departPos="2.87" from="np14_nt9" id="morning39_28800" to="nt7_nt6" type="griddist1"/>
    <trip arrivalPos="106.42" depart="28902" departPos="103.18" from="nt8_nt12" id="morning40_28800" to="nt7_nt6" type="griddist1"/>
    <trip arrivalPos="3.74" depart="28905" departPos="21.38" from="nt4_nt3" id="morning41_28800" to="nt11_nt7" type="griddist1"/>
    <trip arrivalPos="154.42" depart="28905" departPos="114.72" from="nt11_nt10" id="morning42_28800" to="nt7_nt6" type="griddist1"/>
    <trip arrivalPos="45.16" depart="28908" departPos="151.33" from="nt8_nt12" id="morning43_28800" to="nt10_nt11" type="griddist1"/>
    <trip arrivalPos="55.60" depart="28910" departPos="73.45" from="nt1_nt2" id="morning44_28800" to="nt6_nt10" type="griddist1"/>
    <trip arrivalPos="91.48" depart="28911" departPos="31.21" from="nt11_nt12" id="morning45_28800" to="nt11_nt7" type="griddist1"/>
    <trip arrivalPos="62.61" depart="28913" departPos="58.52" from="np1_nt1" id="morning46_28800" to="nt6_nt10" type="griddist1"/>
    <trip arrivalPos="43.85" depart="28917" departPos="146.05" from="nt4_nt8" id="morning47_28800" to="nt7_nt6" type="griddist1"/>
    <trip arrivalPos="141.10" depart="28918" departPos="38.91" from="np3_nt3" id="morning48_28800" to="nt10_nt11" type="griddist1"/>
    <trip arrivalPos="91.71" depart="28918" departPos="138.49" from="nt2_nt6" id="morning49_28800" to="nt10_nt11" type="griddist1"/>
    <trip arrivalPos="171.52" depart="28918" departPos="83.32" from="nt5_nt6" id="morning50_28800" to="nt7_nt6" type="griddist1"/>
    <trip arrivalPos="154.87" depart="28922" departPos="115.91" from="nt16_nt15" id="morning51_28800" to="nt6_nt10" type="griddist1"/>
    <trip arrivalPos="82.07" depart="28927" departPos="12.67" from="nt2_nt3" id="morning52_28800" to="nt10_nt11" type="griddist1"/>
    <trip arrivalPos="90.91" depart="28928" departPos="10.43" from="nt10_nt9" id="morning53_28800" to="nt11_nt7" type="griddist1"/>
    <trip arrivalPos="149.04" depart="28930" departPos="10.56" from="nt10_nt9" id="morning54_28800" to="nt11_nt7" type="griddist1"/>
    <trip arrivalPos="114.15" depart="28931" departPos="57.99" from="np14_nt9" id="morning55_28800" to="nt7_nt6" type="griddist1"/>
    <trip arrivalPos="141.89" depart="28933" departPos="99.33" from="nt15_nt11" id="morning56_28800" to="nt11_nt7" type="griddist1"/>
    <trip arrivalPos="116.81" depart="28934" departPos="150.30" from="nt7_nt8" id="morning57_28800" to="nt11_nt7" type="griddist1"/>
    <trip arrivalPos="11.09" depart="28936" departPos="28.00" from="nt11_nt10" id="morning58_28800" to="nt11_nt7" type="griddist1"/>
    <trip arrivalPos="132.58" depart="28947" departPos="23.29" from="np16_nt1" id="morning59_28800" to="nt7_nt6" type="griddist1"/>
    <trip arrivalPos="81.25" depart="28947" departPos="44.40" from="nt15_nt11" id="morning60_28800" to="nt10_nt11" type="griddist1"/>
    <trip arrivalPos="66.82" depart="28950" departPos="28.45" from="nt13_nt9" id="morning61_28800" to="nt6_nt10" type="griddist1"/>
    <trip arrivalPos="107.14" depart="28951" departPos="60.64" from="nt10_nt6" id="morning62_28800" to="nt11_nt7" type="griddist1"/>
    <trip arrivalPos="16.94" depart="28952" departPos="11.81" from="nt6_nt10" id="morning63_28800" to="nt6_nt10" type="griddist1"/>
    <trip arrivalPos="117.66" depart="28956" departPos="134.32" from="nt3_nt4" id="morning64_28800" to="nt11_nt7" type="griddist1"/>
    <trip arrivalPos="108.16" depart="28958" departPos="59.74" from="nt8_nt12" id="morning65_28800" to="nt7_nt6" type="griddist1"/>
    <trip arrivalPos="125.17" depart="28961" departPos="62.51" from="np3_nt3" id="morning66_28800" to="nt11_nt7" type="griddist1"/>
    <trip arrivalPos="55.48" depart="28962" departPos="168.09" from="nt12_nt16" id="morning67_28800" to="nt6_nt10" type="griddist1"/>
    <trip arrivalPos="124.37" depart="28963" departPos="150.93" from="nt12_nt11" id="morning68_28800" to="nt7_nt6" type="griddist1"/>
    <trip arrivalPos="94.33" depart="28963" departPos="127.21" from="nt6_nt7" id="morning69_28800" to="nt6_nt10" type="griddist1"/>
    <trip arrivalPos="64.98" depart="28964" departPos="64.84" from="nt2_nt6" id="morning70_28800" to="nt11_nt7" type="griddist1"/>
    <trip arrivalPos="90.25" depart="28964" departPos="71.08" from="np5_nt4" id="morning71_28800" to="nt10_nt11" type="griddist1"/>
    <trip arrivalPos="156.73" depart="28968" departPos="5.79" from="np8_nt16" id="morning72_28800" to="nt10_nt11" type="griddist1"/>
    <trip arrivalPos="164.01" depart="28971" departPos="56.62" from="np16_nt1" id="morning73_28800" to="nt7_nt6" type="griddist1"/>
    <trip arrivalPos="23.48" depart="28977" departPos="57.47" from="np12_nt13" id="morning74_28800" to="nt11_nt7" type="griddist1"/>
    <trip arrivalPos="143.12" depart="28978" departPos="154.30" from="nt12_nt11" id="morning75_28800" to="nt10_nt11" type="griddist1"/>
    <trip arrivalPos="76.26" depart="28980" departPos="78.43" from="nt6_nt2" id="morning76_28800" to="nt10_nt11" type="griddist1"/>
    <trip arrivalPos="52.88" depart="28981" departPos="82.44" from="nt3_nt4" id="morning77_28800" to="nt10_nt11" type="griddist1"/>
    <trip arrivalPos="55.46" depart="28985" departPos="95.69" from="nt5_nt1" id="morning78_28800" to="nt11_nt7" type="griddist1"/>
    <trip arrivalPos="65.92" depart="28986" departPos="149.65" from="nt6_nt2" id="morning79_28800" to="nt11_nt7" type="griddist1"/>
    <trip arrivalPos="52.30" depart="28987" departPos="85.69" from="nt8_nt7" id="morning80_28800" to="nt7_nt6" type="griddist1"/>
    <trip arrivalPos="146.39" depart="28988" departPos="179.34" from="nt12_nt11" id="morning81_28800" to="nt6_nt10" type="griddist1"/>
    <trip arrivalPos="119.00" depart="28989" departPos="44.80" from="nt6_nt2" id="morning82_28800" to="nt10_nt11" type="griddist1"/>
    <trip arrivalPos="151.58" depart="28992" departPos="18.38" from="nt7_nt3" id="morning83_28800" to="nt6_nt10" type="griddist1"/>
    <trip arrivalPos="48.88" depart="29000" departPos="136.75" from="nt7_nt11" id="morning84_28800" to="nt11_nt7" type="griddist1"/>
    <trip arrivalPos="175.65" depart="29005" departPos="81.19" from="nt7_nt8" id="morning85_28800" to="nt10_nt11" type="griddist1"/>
    <trip arrivalPos="4.78" depart="29005" departPos="26.22" from="np8_nt16" id="morning86_28800" to="nt11_nt7" type="griddist1"/>
    <trip arrivalPos="178.22" depart="29005" departPos="15.99" from="np13_nt13" id="morning87_28800" to="nt6_nt10" type="griddist1"/>
    <trip arrivalPos="155.75" depart="29007" departPos="166.80" from="nt11_nt7" id="morning88_28800" to="nt10_nt11" type="griddist1"/>
    <trip arrivalPos="53.24" depart="29007" departPos="24.66" from="nt2_nt6" id="morning89_28800" to="nt7_nt6" type="griddist1"/>
    <trip arrivalPos="126.43" depart="29008" departPos="25.76" from="nt6_nt7" id="morning90_28800" to="nt6_nt10" type="griddist1"/>
    <trip arrivalPos="47.50" depart="29010" departPos="14.20" from="nt13_nt9" id="morning91_28800" to="nt10_nt11" type="griddist1"/>
    <trip arrivalPos="94.58" depart="29011" departPos="134.97" from="nt6_nt7" id="morning92_28800" to="nt6_nt10" type="griddist1"/>
    <trip arrivalPos="8.56" depart="29013" departPos="19.45" from="np1_nt1" id="morning93_28800" to="nt11_nt7" type="griddist1"/>
    <trip arrivalPos="20.58" depart="29019" departPos="81.91" from="nt12_nt8" id="morning94_28800" to="nt7_nt6" type="griddist1"/>
    <trip arrivalPos="92.36" depart="29021" departPos="3.05" from="nt7_nt8" id="morning95_28800" to="nt6_nt10" type="griddist1"/>
    <trip arrivalPos="114.11" depart="29022" departPos="32.19" from="np9_nt16" id="morning96_28800" to="nt10_nt11" type="griddist1"/>
    <trip arrivalPos="15.34" depart="29023" departPos="49.83" from="np9_nt16" id="morning97_28800" to="nt11_nt7" type="griddist1"/>
    <trip arrivalPos="94.16" depart="29029" departPos="94.27" from="nt9_nt13" id="morning98_28800" to="nt10_nt11" type="griddist1"/>
    <trip arrivalPos="84.25" depart="29029" departPos="69.97" from="nt9_nt5" id="morning99_28800" to="nt6_nt10" type="griddist1"/>
    <trip arrivalPos="3.01" depart="29032" departPos="47.08" from="nt2_nt3" id="morning100_28800" to="nt7_nt6" type="griddist1"/>
    <trip arrivalPos="112.58" depart="29034" departPos="131.34" from="nt6_nt10" id="morning101_28800" to="nt11_nt7" type="griddist1"/>
    <trip arrivalPos="7.94" depart="29037" departPos="59.59" from="nt5_nt9" id="morning102_28800" to="nt6_nt10" type="griddist1"/>
    <trip arrivalPos="144.61" depart="29039" departPos="32.50" from="nt15_nt16" id="morning103_28800" to="nt7_nt6" type="griddist1"/>
    <trip arrivalPos="145.42" depart="29040" departPos="113.21" from="nt14_nt10" id="morning104_28800" to="nt6_nt10" type="griddist1"/>
    <trip arrivalPos="54.46" depart="29041" departPos="31.03" from="np14_nt9" id="morning105_28800" to="nt7_nt6" type="griddist1"/>
    <trip arrivalPos="173.23" depart="29044" departPos="3.14" from="np12_nt13" id="morning106_28800" to="nt10_nt11" type="griddist1"/>
    <trip arrivalPos="47.02" depart="29046" departPos="97.31" from="nt15_nt11" id="morning107_28800" to="nt7_nt6" type="griddist1"/>
    <trip arrivalPos="144.92" depart="29048" departPos="66.25" from="nt5_nt6" id="morning108_28800" to="nt10_nt11" type="griddist1"/>
    <trip arrivalPos="65.95" depart="29048" departPos="22.31" from="nt7_nt3" id="morning109_28800" to="nt11_nt7" type="griddist1"/>
    <trip arrivalPos="69.29" depart="29049" departPos="166.04" from="nt7_nt6" id="morning110_28800" to="nt6_nt10" type="griddist1"/>
    <trip arrivalPos="165.64" depart="29055" departPos="89.16" from="nt9_nt13" id="morning111_28800" to="nt11_nt7" type="griddist1"/>
    <trip arrivalPos="14.65" depart="29058" departPos="134.95" from="nt15_nt14" id="morning112_28800" to="nt7_nt6" type="griddist1"/>
    <trip arrivalPos="59.62" depart="29060" departPos="97.75" from="nt1_nt5" id="morning113_28800" to="nt7_nt6" type="griddist1"/>
    <trip arrivalPos="107.99" depart="29062" departPos="20.78" from="np15_nt5" id="morning114_28800" to="nt6_nt10" type="griddist1"/>
    <trip arrivalPos="7.59" depart="29063" departPos="65.25" from="nt13_nt14" id="morning115_28800" to="nt6_nt10" type="griddist1"/>
    <trip arrivalPos="49.20" depart="29067" departPos="178.87" from="nt7_nt3" id="morning116_28800" to="nt11_nt7" type="griddist1"/>
    <trip arrivalPos="118.32" depart="29071" departPos="13.45" from="nt9_nt13" id="morning117_28800" to="nt7_nt6" type="griddist1"/>
    <trip arrivalPos="176.84" depart="29076" departPos="121.75" from="nt11_nt7" id="morning118_28800" to="nt7_nt6" type="griddist1"/>
    <trip arrivalPos="6.24" depart="29078" departPos="50.47" from="np3_nt3" id="morning119_28800" to="nt6_nt10" type="griddist1"/>
    <trip arrivalPos="71.06" depart="29080" departPos="24.84" from="np14_nt9" id="morning120_28800" to="nt7_nt6" type="griddist1"/>
    <trip arrivalPos="170.03" depart="29080" departPos="126.03" from="nt16_nt15" id="morning121_28800" to="nt6_nt10" type="griddist1"/>
    <trip arrivalPos="98.27" depart="29081" departPos="102.85" from="nt11_nt7" id="morning122_28800" to="nt7_nt6" type="griddist1"/>
    <trip arrivalPos="20.33" depart="29081" departPos="44.73" from="nt12_nt16" id="morning123_28800" to="nt6_nt10" type="griddist1"/>
    <trip arrivalPos="100.65" depart="29081" departPos="69.35" from="nt5_nt1" id="morning124_28800" to="nt11_nt7" type="griddist1"/>
    <trip arrivalPos="178.55" depart="29082" departPos="82.83" from="nt10_nt11" id="morning125_28800" to="nt11_nt7" type="griddist1"/>
    <trip arrivalPos="22.76" depart="29083" departPos="88.02" from="nt10_nt6" id="morning126_28800" to="nt7_nt6" type="griddist1"/>
    <trip arrivalPos="79.76" depart="29084" departPos="161.04" from="nt7_nt11" id="morning127_28800" to="nt11_nt7" type="griddist1"/>
    <trip arrivalPos="57.27" depart="29084" departPos="57.33" from="np15_nt5" id="morning128_28800" to="nt6_nt10" type="griddist1"/>
    <trip arrivalPos="165.43" depart="29085" departPos="97.16" from="nt11_nt15" id="morning129_28800" to="nt10_nt11" type="griddist1"/>
    <trip arrivalPos="114.28" depart="29086" departPos="166.18" from="nt7_nt11" id="morning130_28800" to="nt6_nt10" type="griddist1"/>
    <trip arrivalPos="36.02" depart="29090" departPos="21.75" from="nt6_nt10" id="morning131_28800" to="nt6_nt10" type="griddist1"/>
    <trip arrivalPos="102.83" depart="29090" departPos="1.70" from="np2_nt2" id="morning132_28800" to="nt7_nt6" type="griddist1"/>
    <trip arrivalPos="113.58" depart="29091" departPos="98.86" from="nt11_nt7" id="morning133_28800" to="nt7_nt6" type="griddist1"/>
    <trip arrivalPos="128.82" depart="29092" departPos="67.77" from="np15_nt5" id="morning134_28800" to="nt11_nt7" type="griddist1"/>
    <trip arrivalPos="13.69" depart="29092" departPos="152.81" from="nt15_nt14" id="morning135_28800" to="nt7_nt6" type="griddist1"/>
    <trip arrivalPos="121.88" depart="29097" departPos="80.64" from="nt9_nt13" id="morning136_28800" to="nt6_nt10" type="griddist1"/>
    <trip arrivalPos="118.75" depart="29098" departPos="139.82" from="nt11_nt15" id="morning137_28800" to="nt7_nt6" type="griddist1"/>
    <trip arrivalPos="169.03" depart="29100" departPos="32.45" from="np5_nt4" id="morning138_28800" to="nt7_nt6" type="griddist1"/>
    <trip arrivalPos="30.56" depart="29102" departPos="10.37" from="np13_nt13" id="morning139_28800" to="nt10_nt11" type="griddist1"/>
    <trip arrivalPos="168.61" depart="29103" departPos="64.22" from="nt11_nt10" id="morning140_28800" to="nt6_nt10" type="griddist1"/>
    <trip arrivalPos="117.87" depart="29106" departPos="46.51" from="nt7_nt8" id="morning141_28800" to="nt7_nt6" type="griddist1"/>
    <trip arrivalPos="99.01" depart="29107" departPos="54.27" from="nt16_nt12" id="morning142_28800" to="nt10_nt11" type="griddist1"/>
    <trip arrivalPos="28.62" depart="29108" departPos="168.74" from="nt15_nt11" id="morning143_28800" to="nt10_nt11" type="griddist1"/>
    <trip arrivalPos="150.98" depart="29108" departPos="112.31" from="nt3_nt2" id="morning144_28800" to="nt6_nt10" type="griddist1"/>
    <trip arrivalPos="8.44" depart="29108" departPos="5.27" from="nt16_nt15" id="morning145_28800" to="nt7_nt6" type="griddist1"/>
    <trip arrivalPos="137.44" depart="29111" departPos="116.68" from="nt2_nt6" id="morning146_28800" to="nt6_nt10" type="griddist1"/>
    <trip arrivalPos="112.39" depart="29117" departPos="89.25" from="nt12_nt8" id="morning147_28800" to="nt6_nt10" type="griddist1"/>
    <trip arrivalPos="149.35" depart="29122" departPos="86.54" from="nt10_nt6" id="morning148_28800" to="nt7_nt6" type="griddist1"/>
    <trip arrivalPos="10.74" depart="29122" departPos="13.54" from="nt3_nt4" id="morning149_28800" to="nt11_nt7" type="griddist1"/>
    <trip arrivalPos="108.71" depart="29123" departPos="36.56" from="nt13_nt9" id="morning150_28800" to="nt11_nt7" type="griddist1"/>
    <trip arrivalPos="154.25" depart="29126" departPos="136.27" from="nt11_nt10" id="morning151_28800" to="nt6_nt10" type="griddist1"/>
    <trip arrivalPos="104.24" depart="29128" departPos="66.40" from="nt9_nt13" id="morning152_28800" to="nt10_nt11" type="griddist1"/>
    <trip arrivalPos="44.43" depart="29128" departPos="49.64" from="nt11_nt10" id="morning153_28800" to="nt11_nt7" type="griddist1"/>
    <trip arrivalPos="110.28" depart="29129" departPos="26.05" from="np16_nt1" id="morning154_28800" to="nt11_nt7" type="griddist1"/>
    <trip arrivalPos="60.77" depart="29130" departPos="11.98" from="np9_nt16" id="morning155_28800" to="nt7_nt6" type="griddist1"/>
    <trip arrivalPos="89.29" depart="29132" departPos="141.64" from="nt16_nt15" id="morning156_28800" to="nt11_nt7" type="griddist1"/>
    <trip arrivalPos="4.15" depart="29135" departPos="55.29" from="nt15_nt11" id="morning157_28800" to="nt11_nt7" type="griddist1"/>
    <trip arrivalPos="38.55" depart="29135" departPos="179.42" from="nt8_nt7" id="morning158_28800" to="nt6_nt10" type="griddist1"/>
    <trip arrivalPos="163.76" depart="29143" departPos="88.69" from="nt11_nt15" id="morning159_28800" to="nt10_nt11" type="griddist1"/>
    <trip arrivalPos="151.81" depart="29147" departPos="96.17" from="nt2_nt6" id="morning160_28800" to="nt11_nt7" type="griddist1"/>
    <trip arrivalPos="141.77" depart="29148" departPos="135.03" from="nt13_nt14" id="morning161_28800" to="nt7_nt6" type="griddist1"/>
    <trip arrivalPos="34.88" depart="29150" departPos="102.19" from="nt11_nt7" id="morning162_28800" to="nt11_nt7" type="griddist1"/>
    <trip arrivalPos="141.87" depart="29150" departPos="90.36" from="nt16_nt12" id="morning163_28800" to="nt10_nt11" type="griddist1"/>
    <trip arrivalPos="22.05" depart="29154" departPos="121.93" from="nt10_nt14" id="morning164_28800" to="nt7_nt6" type="griddist1"/>
    <trip arrivalPos="60.76" depart="29156" departPos="142.45" from="nt9_nt13" id="morning165_28800" to="nt11_nt7" type="griddist1"/>
    <trip arrivalPos="94.49" depart="29160" departPos="36.95" from="nt8_nt7" id="morning166_28800" to="nt7_nt6" type="griddist1"/>
    <trip arrivalPos="61.81" depart="29169" departPos="24.56" from="nt15_nt11" id="morning167_28800" to="nt10_nt11" type="griddist1"/>
    <trip arrivalPos="92.38" depart="29169" departPos="112.52" from="nt14_nt13" id="morning168_28800" to="nt11_nt7" type="griddist1"/>
    <trip arrivalPos="177.52" depart="29170" departPos="30.16" from="nt11_nt10" id="morning169_28800" to="nt6_nt10" type="griddist1"/>
    <trip arrivalPos="148.43" depart="29172" departPos="60.28" from="nt5_nt1" id="morning170_28800" to="nt11_nt7" type="griddist1"/>
    <trip arrivalPos="146.18" depart="29173" departPos="55.64" from="nt15_nt16" id="morning171_28800" to="nt6_nt10" type="griddist1"/>
    <trip arrivalPos="104.60" depart="29174" departPos="175.60" from="nt11_nt7" id="morning172_28800" to="nt6_nt10" type="griddist1"/>
    <trip arrivalPos="4.78" depart="29175" departPos="123.30" from="nt6_nt10" id="morning173_28800" to="nt6_nt10" type="griddist1"/>
    <trip arrivalPos="144.06" depart="29178" departPos="145.31" from="nt14_nt13" id="morning174_28800" to="nt7_nt6" type="griddist1"/>
    <trip arrivalPos="30.56" depart="29179" departPos="108.30" from="nt16_nt15" id="morning175_28800" to="nt6_nt10" type="griddist1"/>
    <trip arrivalPos="26.48" depart="29181" departPos="156.12" from="nt2_nt3" id="morning176_28800" to="nt6_nt10" type="griddist1"/>
    <trip arrivalPos="20.40" depart="29181" departPos="175.99" from="nt3_nt4" id="morning177_28800" to="nt10_nt11" type="griddist1"/>
    <trip arrivalPos="123.74" depart="29182" departPos="11.36" from="np11_nt14" id="morning178_28800" to="nt11_nt7" type="griddist1"/>
    <trip arrivalPos="161.99" depart="29182" departPos="164.96" from="nt12_nt8" id="morning179_28800" to="nt7_nt6" type="griddist1"/>
    <trip arrivalPos="38.48" depart="29183" departPos="24.74" from="nt5_nt1" id="morning180_28800" to="nt10_nt11" type="griddist1"/>
    <trip arrivalPos="56.22" depart="29186" departPos="97.53" from="nt11_nt10" id="morning181_28800" to="nt6_nt10" type="griddist1"/>
    <trip arrivalPos="65.76" depart="29196" departPos="25.67" from="np5_nt4" id="morning182_28800" to="nt7_nt6" type="griddist1"/>
    <trip arrivalPos="124.24" depart="29197" departPos="115.28" from="nt5_nt9" id="morning183_28800" to="nt6_nt10" type="griddist1"/>
    <trip arrivalPos="103.58" depart="29197" departPos="45.75" from="nt2_nt1" id="morning184_28800" to="nt10_nt11" type="griddist1"/>
    <trip arrivalPos="53.64" depart="29198" departPos="22.32" from="np8_nt16" id="morning185_28800" to="nt7_nt6" type="griddist1"/>
    <trip arrivalPos="62.51" depart="29201" departPos="23.78" from="np7_nt12" id="morning186_28800" to="nt6_nt10" type="griddist1"/>
    <trip arrivalPos="22.62" depart="29203" departPos="49.00" from="nt8_nt4" id="morning187_28800" to="nt7_nt6" type="griddist1"/>
    <trip arrivalPos="146.65" depart="29203" departPos="181.92" from="nt3_nt4" id="morning188_28800" to="nt11_nt7" type="griddist1"/>
    <trip arrivalPos="53.38" depart="29205" departPos="53.91" from="nt9_nt10" id="morning189_28800" to="nt7_nt6" type="griddist1"/>
    <trip arrivalPos="45.95" depart="29206" departPos="82.11" from="nt4_nt3" id="morning190_28800" to="nt11_nt7" type="griddist1"/>
    <trip arrivalPos="173.17" depart="29206" departPos="99.96" from="nt14_nt13" id="morning191_28800" to="nt10_nt11" type="griddist1"/>
    <trip arrivalPos="108.92" depart="29208" departPos="110.33" from="nt3_nt7" id="morning192_28800" to="nt10_nt11" type="griddist1"/>
    <trip arrivalPos="114.32" depart="29209" departPos="39.83" from="np9_nt16" id="morning193_28800" to="nt6_nt10" type="griddist1"/>
    <trip arrivalPos="18.02" depart="29211" departPos="48.64" from="np13_nt13" id="morning194_28800" to="nt11_nt7" type="griddist1"/>
    <trip arrivalPos="172.44" depart="29211" departPos="98.62" from="nt5_nt9" id="morning195_28800" to="nt10_nt11" type="griddist1"/>
    <trip arrivalPos="88.61" depart="29211" departPos="157.41" from="nt12_nt8" id="morning196_28800" to="nt7_nt6" type="griddist1"/>
    <trip arrivalPos="119.88" depart="29213" departPos="24.09" from="np6_nt8" id="morning197_28800" to="nt7_nt6" type="griddist1"/>
    <trip arrivalPos="99.32" depart="29217" departPos="102.88" from="nt8_nt12" id="morning198_28800" to="nt10_nt11" type="griddist1"/>
    <trip arrivalPos="32.49" depart="29218" departPos="163.65" from="nt4_nt8" id="morning199_28800" to="nt7_nt6" type="griddist1"/>
    <trip arrivalPos="185.08" depart="29219" departPos="170.68" from="nt7_nt6" id="morning200_28800" to="nt10_nt11" type="griddist1"/>
    <trip arrivalPos="172.41" depart="29220" departPos="167.84" from="nt12_nt16" id="morning201_28800" to="nt11_nt7" type="griddist1"/>
    <trip arrivalPos="105.41" depart="29221" departPos="1.66" from="nt8_nt4" id="morning202_28800" to="nt7_nt6" type="griddist1"/>
    <trip arrivalPos="183.58" depart="29224" departPos="19.29" from="np16_nt1" id="morning203_28800" to="nt7_nt6" type="griddist1"/>
    <trip arrivalPos="152.51" depart="29228" departPos="174.20" from="nt15_nt16" id="morning204_28800" to="nt11_nt7" type="griddist1"/>
    <trip arrivalPos="30.16" depart="29232" departPos="20.19" from="nt14_nt10" id="morning205_28800" to="nt10_nt11" type="griddist1"/>
    <trip arrivalPos="132.00" depart="29235" departPos="33.37" from="nt14_nt10" id="morning206_28800" to="nt11_nt7" type="griddist1"/>
    <trip arrivalPos="31.45" depart="29236" departPos="135.71" from="nt6_nt10" id="morning207_28800" to="nt6_nt10" type="griddist1"/>
    <trip arrivalPos="95.64" depart="29236" departPos="148.20" from="nt7_nt11" id="morning208_28800" to="nt7_nt6" type="griddist1"/>
    <trip arrivalPos="25.20" depart="29238" departPos="12.53" from="np15_nt5" id="morning209_28800" to="nt6_nt10" type="griddist1"/>
    <trip arrivalPos="43.71" depart="29242" departPos="48.40" from="nt11_nt10" id="morning210_28800" to="nt10_nt11" type="griddist1"/>
    <trip arrivalPos="134.17" depart="29242" departPos="56.04" from="nt5_nt6" id="morning211_28800" to="nt7_nt6" type="griddist1"/>
    <trip arrivalPos="11.13" depart="29243" departPos="51.96" from="np10_nt15" id="morning212_28800" to="nt6_nt10" type="griddist1"/>
    <trip arrivalPos="90.05" depart="29244" departPos="26.19" from="np1_nt1" id="morning213_28800" to="nt11_nt7" type="griddist1"/>
    <trip arrivalPos="21.04" depart="29247" departPos="57.72" from="nt7_nt8" id="morning214_28800" to="nt6_nt10" type="griddist1"/>
    <trip arrivalPos="39.27" depart="29249" departPos="110.14" from="nt8_nt12" id="morning215_28800" to="nt11_nt7" type="griddist1"/>
    <trip arrivalPos="112.43" depart="29256" departPos="48.30" from="np2_nt2" id="morning216_28800" to="nt10_nt11" type="griddist1"/>
    <trip arrivalPos="96.32" depart="29256" departPos="84.37" from="nt12_nt8" id="morning217_28800" to="nt6_nt10" type="griddist1"/>
    <trip arrivalPos="140.08" depart="29258" departPos="45.93" from="nt3_nt2" id="morning218_28800" to="nt10_nt11" type="griddist1"/>
    <trip arrivalPos="130.62" depart="29258" departPos="80.06" from="nt7_nt3" id="morning219_28800" to="nt10_nt11" type="griddist1"/>
    <trip arrivalPos="98.14" depart="29264" departPos="4.19" from="np14_nt9" id="morning220_28800" to="nt6_nt10" type="griddist1"/>
    <trip arrivalPos="58.80" depart="29267" departPos="26.85" from="nt15_nt11" id="morning221_28800" to="nt6_nt10" type="griddist1"/>
    <trip arrivalPos="108.23" depart="29268" departPos="38.12" from="nt15_nt14" id="morning222_28800" to="nt10_nt11" type="griddist1"/>
    <trip arrivalPos="81.26" depart="29269" departPos="54.83" from="np15_nt5" id="morning223_28800" to="nt6_nt10" type="griddist1"/>
    <trip arrivalPos="82.86" depart="29269" departPos="10.35" from="nt15_nt11" id="morning224_28800" to="nt11_nt7" type="griddist1"/>