<routes>
    <trip arrivalPos="24.13" depart="32401" departPos="10.85" from="np10_nt15" id="morning0_32400" to="nt7_nt6" type="griddist1"/>
    <trip arrivalPos="4.78" depart="32402" departPos="122.69" from="nt10_nt11" id="morning1_32400" to="nt10_nt11" type="griddist1"/>
    <trip arrivalPos="60.09" depart="32404" departPos="17.84" from="np10_nt15" id="morning2_32400" to="nt7_nt6" type="griddist1"/>
    <trip arrivalPos="97.64" depart="32406" departPos="55.63" from="np5_nt4" id="morning3_32400" to="nt10_nt11" type="griddist1"/>
    <trip arrivalPos="91.97" depart="32408" departPos="139.42" from="nt5_nt1" id="morning4_32400" to="nt11_nt7" type="griddist1"/>
    <trip arrivalPos="7.77" depart="32410" departPos="64.10" from="np16_nt1" id="morning5_32400" to="nt6_nt10" type="griddist1"/>
    <trip arrivalPos="85.01" depart="32410" departPos="93.44" from="nt6_nt10" id="morning6_32400" to="nt7_nt6" type="griddist1"/>
    <trip arrivalPos="74.54" depart="32413" departPos="88.90" from="nt9_nt10" id="morning7_32400" to="nt10_nt11" type="griddist1"/>
    <trip arrivalPos="13.17" depart="32414" departPos="168.84" from="nt3_nt4" id="morning8_32400" to="nt11_nt7" type="griddist1"/>
    <trip arrivalPos="49.28" depart="32422" departPos="4.45" from="np15_nt5" id="morning9_32400" to="nt6_nt10" type="griddist1"/>
    <trip arrivalPos="178.24" depart="32424" departPos="60.35" from="nt2_nt3" id="morning10_32400" to="nt6_nt10" type="griddist1"/>
    <trip arrivalPos="17.77" depart="32426" departPos="112.37" from="nt15_nt14" id="morning11_32400" to="nt11_nt7" type="griddist1"/>
    <trip arrivalPos="142.72" depart="32429" departPos="116.64" from="nt3_nt7" id="morning12_32400" to="nt7_nt6" type="griddist1"/>
    <trip arrivalPos="42.41" depart="32432" departPos="80.92" from="nt4_nt8" id="morning13_32400" to="nt10_nt11" type="griddist1"/>
    <trip arrivalPos="17.04" depart="32433" departPos="77.21" from="nt11_nt12" id="morning14_32400" to="nt11_nt7" type="griddist1"/>
    <trip arrivalPos="27.35" depart="32438" departPos="69.47" from="nt13_nt14" id="morning15_32400" to="nt6_nt10" type="griddist1"/>
    <trip arrivalPos="17.30" depart="32438" departPos="149.05" from="nt8_nt4" id="morning16_32400" to="nt10_nt11" type="griddist1"/>
    <trip arrivalPos="99.70" depart="32439" departPos="55.04" from="np16_nt1" id="morning17_32400" to="nt6_nt10" type="griddist1"/>
    <trip arrivalPos="21.90" depart="32441" departPos="61.18" from="nt1_nt2" id="morning18_32400" to="nt6_nt10" type="griddist1"/>
    <trip arrivalPos="155.56" depart="32447" departPos="134.45" from="nt11_nt15" id="morning19_32400" to="nt6_nt10" type="griddist1"/>
    <trip arrivalPos="65.27" depart="32450" departPos="107.59" from="nt4_nt8" id="morning20_32400" to="nt7_nt6" type="griddist1"/>
    <trip arrivalPos="41.62" depart="32451" departPos="121.89" from="nt16_nt15" id="morning21_32400" to="nt10_nt11" type="griddist1"/>
    <trip arrivalPos="141.54" depart="32456" departPos="24.92" from="np16_nt1" id="morning22_32400" to="nt7_nt6" type="griddist1"/>
    <trip arrivalPos="180.88" depart="32457" departPos="156.86" from="nt16_nt15" id="morning23_32400" to="nt7_nt6" type="griddist1"/>
    <trip arrivalPos="4.70" depart="32457" departPos="119.28" from="nt6_nt5" id="morning24_32400" to="nt6_nt10" type="griddist1"/>
    <trip arrivalPos="33.49" depart="32460" departPos="47.93" from="nt8_nt4" id="morning25_32400" to="nt7_nt6" type="griddist1"/>
    <trip arrivalPos="1.09" depart="32462" departPos="60.90" from="nt3_nt7" id="morning26_32400" to="nt11_nt7" type="griddist1"/>
    <trip arrivalPos="25.42" depart="32470" departPos="71.82" from="nt7_nt3" id="morning27_32400" to="nt6_nt10" type="griddist1"/>
    <trip arrivalPos="39.93" depart="32479" departPos="138.48" from="nt2_nt3" id="morning28_32400" to="nt10_nt11" type="griddist1"/>
    <trip arrivalPos="129.31" depart="32479" departPos="66.31" from="nt12_nt8" id="morning29_32400" to="nt11_nt7" type="griddist1"/>
    <trip arrivalPos="9.43" depart="32480" departPos="15.22" from="nt5_nt9" id="morning30_32400" to="nt6_nt10" type="griddist1"/>
    <trip arrivalPos="48.76" depart="32483" departPos="43.54" from="np4_nt4" id="morning31_32400" to="nt6_nt10" type="griddist1"/>
    <trip arrivalPos="48.95" depart="32484" departPos="82.04" from="nt3_nt2" id="morning32_32400" to="nt11_nt7" type="griddist1"/>
    <trip arrivalPos="52.57" depart="32486" departPos="79.79" from="nt5_nt6" id="morning33_32400" to="nt10_nt11" type="griddist1"/>
    <trip arrivalPos="8.14" depart="32487" departPos="123.82" from="nt3_nt4" id="morning34_32400" to="nt11_nt7" type="griddist1"/>
    <trip arrivalPos="54.01" depart="32489" departPos="1.38" from="nt12_nt16" id="morning35_32400" to="nt6_nt10" type="griddist1"/>
    <trip arrivalPos="60.90" depart="32496" departPos="19.16" from="np7_nt12" id="morning36_32400" to="nt10_nt11" type="griddist1"/>
    <trip arrivalPos="68.13" depart="32500" departPos="13.18" from="np10_nt15" id="morning37_32400" to="nt6_nt10" type="griddist1"/>
    <trip arrivalPos="144.47" depart="32501" departPos="154.67" from="nt4_nt3" id="morning38_32400" to="nt6_nt10" type="griddist1"/>
    <trip arrivalPos="3.48" depart="32502" departPos="2.87" from="np14_nt9" id="morning39_32400" to="nt7_nt6" type="griddist1"/>
    <trip arrivalPos="106.42" depart="32502" departPos="103.18" from="nt8_nt12" id="morning40_32400" to="nt7_nt6" type="griddist1"/>
    <trip arrivalPos="3.74" depart="32505" departPos="21.38" from="nt4_nt3" id="morning41_32400" to="nt11_nt7" type="griddist1"/>
    <trip arrivalPos="154.42" depart="32505" departPos="114.72" from="nt11_nt10" id="morning42_32400" to="nt7_nt6" type="griddist1"/>
    <trip arrivalPos="45.16" depart="32508" departPos="151.33" from="nt8_nt12" id="morning43_32400" to="nt10_nt11" type="griddist1"/>
    <trip arrivalPos="55.60" depart="32510" departPos="73.45" from="nt1_nt2" id="morning44_32400" to="nt6_nt10" type="griddist1"/>
    <trip arrivalPos="91.48" depart="32511" departPos="31.21" from="nt11_nt12" id="morning45_32400" to="nt11_nt7" type="griddist1"/>
    <trip arrivalPos="62.61" depart="32513" departPos="58.52" from="np1_nt1" id="morning46_32400" to="nt6_nt10" type="griddist1"/>
    <trip arrivalPos="43.85" depart="32517" departPos="146.05" from="nt4_nt8" id="morning47_32400" to="nt7_nt6" type="griddist1"/>
    <trip arrivalPos="141.10" depart="32518" departPos="38.91" from="np3_nt3" id="morning48_32400" to="nt10_nt11" type="griddist1"/>
    <trip arrivalPos="91.71" depart="32518" departPos="138.49" from="nt2_nt6" id="morning49_32400" to="nt10_nt11" type="griddist1"/>
    <trip arrivalPos="171.52" depart="32518" departPos="83.32" from="nt5_nt6" id="morning50_32400" to="nt7_nt6" type="griddist1"/>
    <trip arrivalPos="154.87" depart="32522" departPos="115.91" from="nt16_nt15" id="morning51_32400" to="nt6_nt10" type="griddist1"/>
    <trip arrivalPos="82.07" depart="32527" departPos="12.67" from="nt2_nt3" id="morning52_32400" to="nt10_nt11" type="griddist1"/>
    <trip arrivalPos="90.91" depart="32528" departPos="10.43" from="nt10_nt9" id="morning53_32400" to="nt11_nt7" type="griddist1"/>
    <trip arrivalPos="149.04" depart="32530" departPos="10.56" from="nt10_nt9" id="morning54_32400" to="nt11_nt7" type="griddist1"/>
    <trip arrivalPos="114.15" depart="32531" departPos="57.99" from="np14_nt9" id="morning55_32400" to="nt7_nt6" type="griddist1"/>
    <trip arrivalPos="141.89" depart="32533" departPos="99.33" from="nt15_nt11" id="morning56_32400" to="nt11_nt7" type="griddist1"/>
    <trip arrivalPos="116.81" depart="32534" departPos="150.30" from="nt7_nt8" id="morning57_32400" to="nt11_nt7" type="griddist1"/>
    <trip arrivalPos="11.09" depart="32536" departPos="28.00" from="nt11_nt10" id="morning58_32400" to="nt11_nt7" type="griddist1"/>
    <trip arrivalPos="132.58" depart="32547" departPos="23.29" from="np16_nt1" id="morning59_32400" to="nt7_nt6" type="griddist1"/>
    <trip arrivalPos="81.25" depart="32547" departPos="44.40" from="nt15_nt11" id="morning60_32400" to="nt10_nt11" type="griddist1"/>
    <trip arrivalPos="66.82" depart="32550" departPos="28.45" from="nt13_nt9" id="morning61_32400" to="nt6_nt10" type="griddist1"/>
    <trip arrivalPos="107.14" depart="32551" departPos="60.64" from="nt10_nt6" id="morning62_32400" to="nt11_nt7" type="griddist1"/>
    <trip arrivalPos="16.94" depart="32552" departPos="11.81" from="nt6_nt10" id="morning63_32400" to="nt6_nt10" type="griddist1"/>
    <trip arrivalPos="117.66" depart="32556" departPos="134.32" from="nt3_nt4" id="morning64_32400" to="nt11_nt7" type="griddist1"/>
    <trip arrivalPos="108.16" depart="32558" departPos="59.74" from="nt8_nt12" id="morning65_32400" to="nt7_nt6" type="griddist1"/>
    <trip arrivalPos="125.17" depart="32561" departPos="62.51" from="np3_nt3" id="morning66_32400" to="nt11_nt7" type="griddist1"/>
    <trip arrivalPos="55.48" depart="32562" departPos="168.09" from="nt12_nt16" id="morning67_32400" to="nt6_nt10" type="griddist1"/>
    <trip arrivalPos="124.37" depart="32563" departPos="150.93" from="nt12_nt11" id="morning68_32400" to="nt7_nt6" type="griddist1"/>
    <trip arrivalPos="94.33" depart="32563" departPos="127.21" from="nt6_nt7" id="morning69_32400" to="nt6_nt10" type="griddist1"/>
    <trip arrivalPos="64.98" depart="32564" departPos="64.84" from="nt2_nt6" id="morning70_32400" to="nt11_nt7" type="griddist1"/>
    <trip arrivalPos="90.25" depart="32564" departPos="71.08" from="np5_nt4" id="morning71_32400" to="nt10_nt11" type="griddist1"/>
    <trip arrivalPos="156.73" depart="32568" departPos="5.79" from="np8_nt16" id="morning72_32400" to="nt10_nt11" type="griddist1"/>
    <trip arrivalPos="164.01" depart="32571" departPos="56.62" from="np16_nt1" id="morning73_32400" to="nt7_nt6" type="griddist1"/>
    <trip arrivalPos="23.48" depart="32577" departPos="57.47" from="np12_nt13" id="morning74_32400" to="nt11_nt7" type="griddist1"/>
    <trip arrivalPos="143.12" depart="32578" departPos="154.30" from="nt12_nt11" id="morning75_32400" to="nt10_nt11" type="griddist1"/>
    <trip arrivalPos="76.26" depart="32580" departPos="78.43" from="nt6_nt2" id="morning76_32400" to="nt10_nt11" type="griddist1"/>
    <trip arrivalPos="52.88" depart="32581" departPos="82.44" from="nt3_nt4" id="morning77_32400" to="nt10_nt11" type="griddist1"/>
    <trip arrivalPos="55.46" depart="32585" departPos="95.69" from="nt5_nt1" id="morning78_32400" to="nt11_nt7" type="griddist1"/>
    <trip arrivalPos="65.92" depart="32586" departPos="149.65" from="nt6_nt2" id="morning79_32400" to="nt11_nt7" type="griddist1"/>
    <trip arrivalPos="52.30" depart="32587" departPos="85.69" from="nt8_nt7" id="morning80_32400" to="nt7_nt6" type="griddist1"/>
    <trip arrivalPos="146.39" depart="32588" departPos="179.34" from="nt12_nt11" id="morning81_32400" to="nt6_nt10" type="griddist1"/>
    <trip arrivalPos="119.00" depart="32589" departPos="44.80" from="nt6_nt2" id="morning82_32400" to="nt10_nt11" type="griddist1"/>
    <trip arrivalPos="151.58" depart="32592" departPos="18.38" from="nt7_nt3" id="morning83_32400" to="nt6_nt10" type="griddist1"/>
    <trip arrivalPos="48.88" depart="32600" departPos="136.75" from="nt7_nt11" id="morning84_32400" to="nt11_nt7" type="griddist1"/>
    <trip arrivalPos="175.65" depart="32605" departPos="81.19" from="nt7_nt8" id="morning85_32400" to="nt10_nt11" type="griddist1"/>
    <trip arrivalPos="4.78" depart="32605" departPos="26.22" from="np8_nt16" id="morning86_32400" to="nt11_nt7" type="griddist1"/>
    <trip arrivalPos="178.22" depart="32605" departPos="15.99" from="np13_nt13" id="morning87_32400" to="nt6_nt10" type="griddist1"/>
    <trip arrivalPos="155.75" depart="32607" departPos="166.80" from="nt11_nt7" id="morning88_32400" to="nt10_nt11" type="griddist1"/>
    <trip arrivalPos="53.24" depart="32607" departPos="24.66" from="nt2_nt6" id="morning89_32400" to="nt7_nt6" type="griddist1"/>
    <trip arrivalPos="126.43" depart="32608" departPos="25.76" from="nt6_nt7" id="morning90_32400" to="nt6_nt10" type="griddist1"/>
    <trip arrivalPos="47.50" depart="32610" departPos="14.20" from="nt13_nt9" id="morning91_32400" to="nt10_nt11" type="griddist1"/>
    <trip arrivalPos="94.58" depart="32611" departPos="134.97" from="nt6_nt7" id="morning92_32400" to="nt6_nt10" type="griddist1"/>
    <trip arrivalPos="8.56" depart="32613" departPos="19.45" from="np1_nt1" id="morning93_32400" to="nt11_nt7" type="griddist1"/>
    <trip arrivalPos="20.58" depart="32619" departPos="81.91" from="nt12_nt8" id="morning94_32400" to="nt7_nt6" type="griddist1"/>
    <trip arrivalPos="92.36" depart="32621" departPos="3.05" from="nt7_nt8" id="morning95_32400" to="nt6_nt10" type="griddist1"/>
    <trip arrivalPos="114.11" depart="32622" departPos="32.19" from="np9_nt16" id="morning96_32400" to="nt10_nt11" type="griddist1"/>
    <trip arrivalPos="15.34" depart="32623" departPos="49.83" from="np9_nt16" id="morning97_32400" to="nt11_nt7" type="griddist1"/>
    <trip arrivalPos="94.16" depart="32629" departPos="94.27" from="nt9_nt13" id="morning98_32400" to="nt10_nt11" type="griddist1"/>
    <trip arrivalPos="84.25" depart="32629" departPos="69.97" from="nt9_nt5" id="morning99_32400" to="nt6_nt10" type="griddist1"/>
    <trip arrivalPos="3.01" depart="32632" departPos="47.08" from="nt2_nt3" id="morning100_32400" to="nt7_nt6" type="griddist1"/>
    <trip arrivalPos="112.58" depart="32634" departPos="131.34" from="nt6_nt10" id="morning101_32400" to="nt11_nt7" type="griddist1"/>
    <trip arrivalPos="7.94" depart="32637" departPos="59.59" from="nt5_nt9" id="morning102_32400" to="nt6_nt10" type="griddist1"/>
    <trip arrivalPos="144.61" depart="32639" departPos="32.50" from="nt15_nt16" id="morning103_32400" to="nt7_nt6" type="griddist1"/>
    <trip arrivalPos="145.42" depart="32640" departPos="113.21" from="nt14_nt10" id="morning104_32400" to="nt6_nt10" type="griddist1"/>
    <trip arrivalPos="54.46" depart="32641" departPos="31.03" from="np14_nt9" id="morning105_32400" to="nt7_nt6" type="griddist1"/>
    <trip arrivalPos="173.23" depart="32644" departPos="3.14" from="np12_nt13" id="morning106_32400" to="nt10_nt11" type="griddist1"/>
    <trip arrivalPos="47.02" depart="32646" departPos="97.31" from="nt15_nt11" id="morning107_32400" to="nt7_nt6" type="griddist1"/>
    <trip arrivalPos="144.92" depart="32648" departPos="66.25" from="nt5_nt6" id="morning108_32400" to="nt10_nt11" type="griddist1"/>
    <trip arrivalPos="65.95" depart="32648" departPos="22.31" from="nt7_nt3" id="morning109_32400" to="nt11_nt7" type="griddist1"/>
    <trip arrivalPos="69.29" depart="32649" departPos="166.04" from="nt7_nt6" id="morning110_32400" to="nt6_nt10" type="griddist1"/>
    <trip arrivalPos="165.64" depart="32655" departPos="89.16" from="nt9_nt13" id="morning111_32400" to="nt11_nt7" type="griddist1"/>
    <trip arrivalPos="14.65" depart="32658" departPos="134.95" from="nt15_nt14" id="morning112_32400" to="nt7_nt6" type="griddist1"/>
    <trip arrivalPos="59.62" depart="32660" departPos="97.75" from="nt1_nt5" id="morning113_32400" to="nt7_nt6" type="griddist1"/>
    <trip arrivalPos="107.99" depart="32662" departPos="20.78" from="np15_nt5" id="morning114_32400" to="nt6_nt10" type="griddist1"/>
    <trip arrivalPos="7.59" depart="32663" departPos="65.25" from="nt13_nt14" id="morning115_32400" to="nt6_nt10" type="griddist1"/>
    <trip arrivalPos="49.20" depart="32667" departPos="178.87" from="nt7_nt3" id="morning116_32400" to="nt11_nt7" type="griddist1"/>
    <trip arrivalPos="118.32" depart="32671" departPos="13.45" from="nt9_nt13" id="morning117_32400" to="nt7_nt6" type="griddist1"/>
    <trip arrivalPos="176.84" depart="32676" departPos="121.75" from="nt11_nt7" id="morning118_32400" to="nt7_nt6" type="griddist1"/>
    <trip arrivalPos="6.24" depart="32678" departPos="50.47" from="np3_nt3" id="morning119_32400" to="nt6_nt10" type="griddist1"/>
    <trip arrivalPos="71.06" depart="32680" departPos="24.84" from="np14_nt9" id="morning120_32400" to="nt7_nt6" type="griddist1"/>
    <trip arrivalPos="170.03" depart="32680" departPos="126.03" from="nt16_nt15" id="morning121_32400" to="nt6_nt10" type="griddist1"/>
    <trip arrivalPos="98.27" depart="32681" departPos="102.85" from="nt11_nt7" id="morning122_32400" to="nt7_nt6" type="griddist1"/>
    <trip arrivalPos="20.33" depart="32681" departPos="44.73" from="nt12_nt16" id="morning123_32400" to="nt6_nt10" type="griddist1"/>
    <trip arrivalPos="100.65" depart="32681" departPos="69.35" from="nt5_nt1" id="morning124_32400" to="nt11_nt7" type="griddist1"/>
    <trip arrivalPos="178.55" depart="32682" departPos="82.83" from="nt10_nt11" id="morning125_32400" to="nt11_nt7" type="griddist1"/>
    <trip arrivalPos="22.76" depart="32683" departPos="88.02" from="nt10_nt6" id="morning126_32400" to="nt7_nt6" type="griddist1"/>
    <trip arrivalPos="79.76" depart="32684" departPos="161.04" from="nt7_nt11" id="morning127_32400" to="nt11_nt7" type="griddist1"/>
    <trip arrivalPos="57.27" depart="32684" departPos="57.33" from="np15_nt5" id="morning128_32400" to="nt6_nt10" type="griddist1"/>
    <trip arrivalPos="165.43" depart="32685" departPos="97.16" from="nt11_nt15" id="morning129_32400" to="nt10_nt11" type="griddist1"/>
    <trip arrivalPos="114.28" depart="32686" departPos="166.18" from="nt7_nt11" id="morning130_32400" to="nt6_nt10" type="griddist1"/>
    <trip arrivalPos="36.02" depart="32690" departPos="21.75" from="nt6_nt10" id="morning131_32400" to="nt6_nt10" type="griddist1"/>
    <trip arrivalPos="102.83" depart="32690" departPos="1.70" from="np2_nt2" id="morning132_32400" to="nt7_nt6" type="griddist1"/>
    <trip arrivalPos="113.58" depart="32691" departPos="98.86" from="nt11_nt7" id="morning133_32400" to="nt7_nt6" type="griddist1"/>
    <trip arrivalPos="128.82" depart="32692" departPos="67.77" from="np15_nt5" id="morning134_32400" to="nt11_nt7" type="griddist1"/>
    <trip arrivalPos="13.69" depart="32692" departPos="152.81" from="nt15_nt14" id="morning135_32400" to="nt7_nt6" type="griddist1"/>
    <trip arrivalPos="121.88" depart="32697" departPos="80.64" from="nt9_nt13" id="morning136_32400" to="nt6_nt10" type="griddist1"/>
    <trip arrivalPos="118.75" depart="32698" departPos="139.82" from="nt11_nt15" id="morning137_32400" to="nt7_nt6" type="griddist1"/>
    <trip arrivalPos="169.03" depart="32700" departPos="32.45" from="np5_nt4" id="morning138_32400" to="nt7_nt6" type="griddist1"/>
    <trip arrivalPos="30.56" depart="32702" departPos="10.37" from="np13_nt13" id="morning139_32400" to="nt10_nt11" type="griddist1"/>
    <trip arrivalPos="168.61" depart="32703" departPos="64.22" from="nt11_nt10" id="morning140_32400" to="nt6_nt10" type="griddist1"/>
    <trip arrivalPos="117.87" depart="32706" departPos="46.51" from="nt7_nt8" id="morning141_32400" to="nt7_nt6" type="griddist1"/>
    <trip arrivalPos="99.01" depart="32707" departPos="54.27" from="nt16_nt12" id="morning142_32400" to="nt10_nt11" type="griddist1"/>
    <trip arrivalPos="28.62" depart="32708" departPos="168.74" from="nt15_nt11" id="morning143_32400" to="nt10_nt11" type="griddist1"/>
    <trip arrivalPos="150.98" depart="32708" departPos="112.31" from="nt3_nt2" id="morning144_32400" to="nt6_nt10" type="griddist1"/>
    <trip arrivalPos="8.44" depart="32708" departPos="5.27" from="nt16_nt15" id="morning145_32400" to="nt7_nt6" type="griddist1"/>
    <trip arrivalPos="137.44" depart="32711" departPos="116.68" from="nt2_nt6" id="morning146_32400" to="nt6_nt10" type="griddist1"/>
    <trip arrivalPos="112.39" depart="32717" departPos="89.25" from="nt12_nt8" id="morning147_32400" to="nt6_nt10" type="griddist1"/>
    <trip arrivalPos="149.35" depart="32722" departPos="86.54" from="nt10_nt6" id="morning148_32400" to="nt7_nt6" type="griddist1"/>
    <trip arrivalPos="10.74" depart="32722" departPos="13.54" from="nt3_nt4" id="morning149_32400" to="nt11_nt7" type="griddist1"/>
    <trip arrivalPos="108.71" depart="32723" departPos="36.56" from="nt13_nt9" id="morning150_32400" to="nt11_nt7" type="griddist1"/>
    <trip arrivalPos="154.25" depart="32726" departPos="136.27" from="nt11_nt10" id="morning151_32400" to="nt6_nt10" type="griddist1"/>
    <trip arrivalPos="104.24" depart="32728" departPos="66.40" from="nt9_nt13" id="morning152_32400" to="nt10_nt11" type="griddist1"/>
    <trip arrivalPos="44.43" depart="32728" departPos="49.64" from="nt11_nt10" id="morning153_32400" to="nt11_nt7" type="griddist1"/>
    <trip arrivalPos="110.28" depart="32729" departPos="26.05" from="np16_nt1" id="morning154_32400" to="nt11_nt7" type="griddist1"/>
    <trip arrivalPos="60.77" depart="32730" departPos="11.98" from="np9_nt16" id="morning155_32400" to="nt7_nt6" type="griddist1"/>
    <trip arrivalPos="89.29" depart="32732" departPos="141.64" from="nt16_nt15" id="morning156_32400" to="nt11_nt7" type="griddist1"/>
    <trip arrivalPos="4.15" depart="32735" departPos="55.29" from="nt15_nt11" id="morning157_32400" to="nt11_nt7" type="griddist1"/>
    <trip arrivalPos="38.55" depart="32735" departPos="179.42" from="nt8_nt7" id="morning158_32400" to="nt6_nt10" type="griddist1"/>
    <trip arrivalPos="163.76" depart="32743" departPos="88.69" from="nt11_nt15" id="morning159_32400" to="nt10_nt11" type="griddist1"/>
    <trip arrivalPos="151.81" depart="32747" departPos="96.17" from="nt2_nt6" id="morning160_32400" to="nt11_nt7" type="griddist1"/>
    <trip arrivalPos="141.77" depart="32748" departPos="135.03" from="nt13_nt14" id="morning161_32400" to="nt7_nt6" type="griddist1"/>
    <trip arrivalPos="34.88" depart="32750" departPos="102.19" from="nt11_nt7" id="morning162_32400" to="nt11_nt7" type="griddist1"/>
    <trip arrivalPos="141.87" depart="32750" departPos="90.36" from="nt16_nt12" id="morning163_32400" to="nt10_nt11" type="griddist1"/>
    <trip arrivalPos="22.05" depart="32754" departPos="121.93" from="nt10_nt14" id="morning164_32400" to="nt7_nt6" type="griddist1"/>
    <trip arrivalPos="60.76" depart="32756" departPos="142.45" from="nt9_nt13" id="morning165_32400" to="nt11_nt7" type="griddist1"/>
    <trip arrivalPos="94.49" depart="32760" departPos="36.95" from="nt8_nt7" id="morning166_32400" to="nt7_nt6" type="griddist1"/>
    <trip arrivalPos="61.81" depart="32769" departPos="24.56" from="nt15_nt11" id="morning167_32400" to="nt10_nt11" type="griddist1"/>
    <trip arrivalPos="92.38" depart="32769" departPos="112.52" from="nt14_nt13" id="morning168_32400" to="nt11_nt7" type="griddist1"/>
    <trip arrivalPos="177.52" depart="32770" departPos="30.16" from="nt11_nt10" id="morning169_32400" to="nt6_nt10" type="griddist1"/>
    <trip arrivalPos="148.43" depart="32772" departPos="60.28" from="nt5_nt1" id="morning170_32400" to="nt11_nt7" type="griddist1"/>
    <trip arrivalPos="146.18" depart="32773" departPos="55.64" from="nt15_nt16" id="morning171_32400" to="nt6_nt10" type="griddist1"/>
    <trip arrivalPos="104.60" depart="32774" departPos="175.60" from="nt11_nt7" id="morning172_32400" to="nt6_nt10" type="griddist1"/>
    <trip arrivalPos="4.78" depart="32775" departPos="123.30" from="nt6_nt10" id="morning173_32400" to="nt6_nt10" type="griddist1"/>
    <trip arrivalPos="144.06" depart="32778" departPos="145.31" from="nt14_nt13" id="morning174_32400" to="nt7_nt6" type="griddist1"/>
    <trip arrivalPos="30.56" depart="32779" departPos="108.30" from="nt16_nt15" id="morning175_32400" to="nt6_nt10" type="griddist1"/>
    <trip arrivalPos="26.48" depart="32781" departPos="156.12" from="nt2_nt3" id="morning176_32400" to="nt6_nt10" type="griddist1"/>
    <trip arrivalPos="20.40" depart="32781" departPos="175.99" from="nt3_nt4" id="morning177_32400" to="nt10_nt11" type="griddist1"/>
    <trip arrivalPos="123.74" depart="32782" departPos="11.36" from="np11_nt14" id="morning178_32400" to="nt11_nt7" type="griddist1"/>
    <trip arrivalPos="161.99" depart="32782" departPos="164.96" from="nt12_nt8" id="morning179_32400" to="nt7_nt6" type="griddist1"/>
    <trip arrivalPos="38.48" depart="32783" departPos="24.74" from="nt5_nt1" id="morning180_32400" to="nt10_nt11" type="griddist1"/>
    <trip arrivalPos="56.22" depart="32786" departPos="97.53" from="nt11_nt10" id="morning181_32400" to="nt6_nt10" type="griddist1"/>
    <trip arrivalPos="65.76" depart="32796" departPos="25.67" from="np5_nt4" id="morning182_32400" to="nt7_nt6" type="griddist1"/>
    <trip arrivalPos="124.24" depart="32797" departPos="115.28" from="nt5_nt9" id="morning183_32400" to="nt6_nt10" type="griddist1"/>
    <trip arrivalPos="103.58" depart="32797" departPos="45.75" from="nt2_nt1" id="morning184_32400" to="nt10_nt11" type="griddist1"/>
    <trip arrivalPos="53.64" depart="32798" departPos="22.32" from="np8_nt16" id="morning185_32400" to="nt7_nt6" type="griddist1"/>
    <trip arrivalPos="62.51" depart="32801" departPos="23.78" from="np7_nt12" id="morning186_32400" to="nt6_nt10" type="griddist1"/>
    <trip arrivalPos="22.62" depart="32803" departPos="49.00" from="nt8_nt4" id="morning187_32400" to="nt7_nt6" type="griddist1"/>
    <trip arrivalPos="146.65" depart="32803" departPos="181.92" from="nt3_nt4" id="morning188_32400" to="nt11_nt7" type="griddist1"/>
    <trip arrivalPos="53.38" depart="32805" departPos="53.91" from="nt9_nt10" id="morning189_32400" to="nt7_nt6" type="griddist1"/>
    <trip arrivalPos="45.95" depart="32806" departPos="82.11" from="nt4_nt3" id="morning190_32400" to="nt11_nt7" type="griddist1"/>
    <trip arrivalPos="173.17" depart="32806" departPos="99.96" from="nt14_nt13" id="morning191_32400" to="nt10_nt11" type="griddist1"/>
    <trip arrivalPos="108.92" depart="32808" departPos="110.33" from="nt3_nt7" id="morning192_32400" to="nt10_nt11" type="griddist1"/>
    <trip arrivalPos="114.32" depart="32809" departPos="39.83" from="np9_nt16" id="morning193_32400" to="nt6_nt10" type="griddist1"/>
    <trip arrivalPos="18.02" depart="32811" departPos="48.64" from="np13_nt13" id="morning194_32400" to="nt11_nt7" type="griddist1"/>
    <trip arrivalPos="172.44" depart="32811" departPos="98.62" from="nt5_nt9" id="morning195_32400" to="nt10_nt11" type="griddist1"/>
    <trip arrivalPos="88.61" depart="32811" departPos="157.41" from="nt12_nt8" id="morning196_32400" to="nt7_nt6" type="griddist1"/>
    <trip arrivalPos="119.88" depart="32813" departPos="24.09" from="np6_nt8" id="morning197_32400" to="nt7_nt6" type="griddist1"/>
    <trip arrivalPos="99.32" depart="32817" departPos="102.88" from="nt8_nt12" id="morning198_32400" to="nt10_nt11" type="griddist1"/>
    <trip arrivalPos="32.49" depart="32818" departPos="163.65" from="nt4_nt8" id="morning199_32400" to="nt7_nt6" type="griddist1"/>
    <trip arrivalPos="185.08" depart="32819" departPos="170.68" from="nt7_nt6" id="morning200_32400" to="nt10_nt11" type="griddist1"/>
    <trip arrivalPos="172.41" depart="32820" departPos="167.84" from="nt12_nt16" id="morning201_32400" to="nt11_nt7" type="griddist1"/>
    <trip arrivalPos="105.41" depart="32821" departPos="1.66" from="nt8_nt4" id="morning202_32400" to="nt7_nt6" type="griddist1"/>
    <trip arrivalPos="183.58" depart="32824" departPos="19.29" from="np16_nt1" id="morning203_32400" to="nt7_nt6" type="griddist1"/>
    <trip arrivalPos="152.51" depart="32828" departPos="174.20" from="nt15_nt16" id="morning204_32400" to="nt11_nt7" type="griddist1"/>
    <trip arrivalPos="30.16" depart="32832" departPos="20.19" from="nt14_nt10" id="morning205_32400" to="nt10_nt11" type="griddist1"/>
    <trip arrivalPos="132.00" depart="32835" departPos="33.37" from="nt14_nt10" id="morning206_32400" to="nt11_nt7" type="griddist1"/>
    <trip arrivalPos="31.45" depart="32836" departPos="135.71" from="nt6_nt10" id="morning207_32400" to="nt6_nt10" type="griddist1"/>
    <trip arrivalPos="95.64" depart="32836" departPos="148.20" from="nt7_nt11" id="morning208_32400" to="nt7_nt6" type="griddist1"/>
    <trip arrivalPos="25.20" depart="32838" departPos="12.53" from="np15_nt5" id="morning209_32400" to="nt6_nt10" type="griddist1"/>
    <trip arrivalPos="43.71" depart="32842" departPos="48.40" from="nt11_nt10" id="morning210_32400" to="nt10_nt11" type="griddist1"/>
    <trip arrivalPos="134.17" depart="32842" departPos="56.04" from="nt5_nt6" id="morning211_32400" to="nt7_nt6" type="griddist1"/>
    <trip arrivalPos="11.13" depart="32843" departPos="51.96" from="np10_nt15" id="morning212_32400" to="nt6_nt10" type="griddist1"/>
    <trip arrivalPos="90.05" depart="32844" departPos="26.19" from="np1_nt1" id="morning213_32400" to="nt11_nt7" type="griddist1"/>
    <trip arrivalPos="21.04" depart="32847" departPos="57.72" from="nt7_nt8" id="morning214_32400" to="nt6_nt10" type="griddist1"/>
    <trip arrivalPos="39.27" depart="32849" departPos="110.14" from="nt8_nt12" id="morning215_32400" to="nt11_nt7" type="griddist1"/>
    <trip arrivalPos="112.43" depart="32856" departPos="48.30" from="np2_nt2" id="morning216_32400" to="nt10_nt11" type="griddist1"/>
    <trip arrivalPos="96.32" depart="32856" departPos="84.37" from="nt12_nt8" id="morning217_32400" to="nt6_nt10" type="griddist1"/>
    <trip arrivalPos="140.08" depart="32858" departPos="45.93" from="nt3_nt2" id="morning218_32400" to="nt10_nt11" type="griddist1"/>
    <trip arrivalPos="130.62" depart="32858" departPos="80.06" from="nt7_nt3" id="morning219_32400" to="nt10_nt11" type="griddist1"/>
    <trip arrivalPos="98.14" depart="32864" departPos="4.19" from="np14_nt9" id="morning220_32400" to="nt6_nt10" type="griddist1"/>
    <trip arrivalPos="58.80" depart="32867" departPos="26.85" from="nt15_nt11" id="morning221_32400" to="nt6_nt10" type="griddist1"/>
    <trip arrivalPos="108.23" depart="32868" departPos="38.12" from="nt15_nt14" id="morning222_32400" to="nt10_nt11" type="griddist1"/>
    <trip arrivalPos="81.26" depart="32869" departPos="54.83" from="np15_nt5" id="morning223_32400" to="nt6_nt10" type="griddist1"/>
    <trip arrivalPos="82.86" depart="32869" departPos="10.35" from="nt15_nt11" id="morning224_32400" to="nt11_nt7" type="griddist1"/>