<routes>
    <trip arrivalPos="53.94" depart="68401" departPos="31.62" from="np12_nt13" id="pse10_68400" to="nt4_np4" type="griddist1"/>
    <trip arrivalPos="61.49" depart="68402" departPos="3.91" from="np9_nt16" id="pse11_68400" to="nt3_np3" type="griddist1"/>
    <trip arrivalPos="2.60" depart="68406" departPos="71.80" from="np12_nt13" id="pse12_68400" to="nt1_np1" type="griddist1"/>
    <trip arrivalPos="40.14" depart="68408" departPos="62.94" from="np10_nt15" id="pse13_68400" to="nt1_np1" type="griddist1"/>
    <trip arrivalPos="61.23" depart="68413" departPos="8.58" from="np12_nt13" id="pse14_68400" to="nt2_np2" type="griddist1"/>
    <trip arrivalPos="39.14" depart="68414" departPos="27.67" from="np9_nt16" id="pse15_68400" to="nt2_np2" type="griddist1"/>
    <trip arrivalPos="10.58" depart="68422" departPos="144.36" from="nt8_nt7" id="pse16_68400" to="nt3_np3" type="griddist1"/>
    <trip arrivalPos="37.20" depart="68424" departPos="62.98" from="np14_nt9" id="pse17_68400" to="nt3_np3" type="griddist1"/>
    <trip arrivalPos="12.81" depart="68426" departPos="168.71" from="nt7_nt11" id="pse18_68400" to="nt2_np2" type="griddist1"/>
    <trip arrivalPos="45.04" depart="68429" departPos="43.52" from="nt11_nt7" id="pse19_68400" to="nt4_np4" type="griddist1"/>
    <trip arrivalPos="51.44" depart="68432" departPos="54.61" from="np13_nt13" id="pse110_68400" to="nt3_np3" type="griddist1"/>
    <trip arrivalPos="42.73" depart="68438" departPos="98.88" from="nt11_nt10" id="pse111_68400" to="nt1_np1" type="griddist1"/>
    <trip arrivalPos="27.14" depart="68439" departPos="0.95" from="np10_nt15" id="pse112_68400" to="nt3_np3" type="griddist1"/>
    <trip arrivalPos="57.60" depart="68447" departPos="27.16" from="np9_nt16" id="pse113_68400" to="nt2_np2" type="griddist1"/>
    <trip arrivalPos="33.70" depart="68460" departPos="13.21" from="np9_nt16" id="pse114_68400" to="nt1_np1" type="griddist1"/>
    <trip arrivalPos="50.04" depart="68479" departPos="164.80" from="nt14_nt10" id="pse115_68400" to="nt3_np3" type="griddist1"/>
    <trip arrivalPos="20.82" depart="68480" departPos="44.44" from="np9_nt16" id="pse116_68400" to="nt4_np4" type="griddist1"/>
    <trip arrivalPos="29.12" depart="68486" departPos="20.92" from="np12_nt13" id="pse117_68400" to="nt4_np4" type="griddist1"/>
    <trip arrivalPos="21.73" depart="68496" departPos="124.02" from="nt2_nt1" id="pse118_68400" to="nt3_np3" type="griddist1"/>
    <trip arrivalPos="22.92" depart="68500" departPos="36.57" from="np9_nt16" id="pse119_68400" to="nt2_np2" type="griddist1"/>
    <trip arrivalPos="56.85" depart="68501" departPos="44.71" from="np12_nt13" id="pse120_68400" to="nt2_np2" type="griddist1"/>
    <trip arrivalPos="15.59" depart="68502" departPos="35.46" from="nt10_nt9" id="pse121_68400" to="nt3_np3" type="griddist1"/>
    <trip arrivalPos="30.76" depart="68508" departPos="18.02" from="np7_nt12" id="pse122_68400" to="nt3_np3" type="griddist1"/>
    <trip arrivalPos="19.01" depart="68510" departPos="3.09" from="nt16_nt12" id="pse123_68400" to="nt2_np2" type="griddist1"/>
    <trip arrivalPos="23.84" depart="68511" departPos="49.80" from="np7_nt12" id="pse124_68400" to="nt1_np1" type="griddist1"/>
    <trip arrivalPos="35.56" depart="68513" departPos="184.97" from="nt10_nt9" id="pse125_68400" to="nt2_np2" type="griddist1"/>
    <trip arrivalPos="14.89" depart="68518" departPos="19.81" from="np2_nt2" id="pse126_68400" to="nt2_np2" type="griddist1"/>
    <trip arrivalPos="61.43" depart="68522" departPos="137.88" from="nt16_nt15" id="pse127_68400" to="nt2_np2" type="griddist1"/>
    <trip arrivalPos="17.86" depart="68528" departPos="137.09" from="nt15_nt14" id="pse128_68400" to="nt1_np1" type="griddist1"/>
    <trip arrivalPos="63.34" depart="68530" departPos="106.94" from="nt11_nt15" id="pse129_68400" to="nt4_np4" type="griddist1"/>
    <trip arrivalPos="19.53" depart="68531" departPos="64.67" from="nt5_nt1" id="pse130_68400" to="nt2_np2" type="griddist1"/>
    <trip arrivalPos="3.52" depart="68547" departPos="8.45" from="nt15_nt16" id="pse131_68400" to="nt1_np1" type="griddist1"/>
    <trip arrivalPos="48.63" depart="68556" departPos="47.84" from="np12_nt13" id="pse132_68400" to="nt4_np4" type="griddist1"/>
    <trip arrivalPos="30.92" depart="68558" departPos="21.33" from="np11_nt14" id="pse133_68400" to="nt1_np1" type="griddist1"/>
    <trip arrivalPos="55.67" depart="68562" departPos="16.31" from="np1_nt1" id="pse134_68400" to="nt4_np4" type="griddist1"/>
    <trip arrivalPos="37.28" depart="68563" departPos="36.88" from="np11_nt14" id="pse135_68400" to="nt1_np1" type="griddist1"/>
    <trip arrivalPos="61.31" depart="68571" departPos="145.36" from="nt15_nt11" id="pse136_68400" to="nt1_np1" type="griddist1"/>
    <trip arrivalPos="26.88" depart="68577" departPos="41.86" from="np10_nt15" id="pse137_68400" to="nt1_np1" type="griddist1"/>
    <trip arrivalPos="24.57" depart="68580" departPos="139.00" from="nt11_nt7" id="pse138_68400" to="nt3_np3" type="griddist1"/>
    <trip arrivalPos="27.70" depart="68581" departPos="105.46" from="nt7_nt11" id="pse139_68400" to="nt2_np2" type="griddist1"/>
    <trip arrivalPos="6.41" depart="68587" departPos="178.20" from="nt11_nt10" id="pse140_68400" to="nt1_np1" type="griddist1"/>
    <trip arrivalPos="5.24" depart="68589" departPos="49.12" from="nt2_nt3" id="pse141_68400" to="nt3_np3" type="griddist1"/>
    <trip arrivalPos="26.39" depart="68592" departPos="11.74" from="np12_nt13" id="pse142_68400" to="nt3_np3" type="griddist1"/>
    <trip arrivalPos="18.61" depart="68605" departPos="5.85" from="nt15_nt11" id="pse143_68400" to="nt2_np2" type="griddist1"/>
    <trip arrivalPos="15.08" depart="68605" departPos="5.34" from="np12_nt13" id="pse144_68400" to="nt4_np4" type="griddist1"/>
    <trip arrivalPos="51.93" depart="68605" departPos="44.23" from="np12_nt13" id="pse145_68400" to="nt4_np4" type="griddist1"/>
    <trip arrivalPos="9.62" depart="68607" departPos="16.86" from="np11_nt14" id="pse146_68400" to="nt1_np1" type="griddist1"/>
    <trip arrivalPos="51.20" depart="68608" departPos="4.47" from="np12_nt13" id="pse147_68400" to="nt1_np1" type="griddist1"/>
    <trip arrivalPos="28.37" depart="68621" departPos="165.08" from="nt11_nt7" id="pse148_68400" to="nt4_np4" type="griddist1"/>
    <trip arrivalPos="17.59" depart="68629" departPos="30.19" from="np9_nt16" id="pse149_68400" to="nt2_np2" type="griddist1"/>
    <trip arrivalPos="57.46" depart="68632" departPos="107.17" from="nt10_nt14" id="pse150_68400" to="nt2_np2" type="griddist1"/>
    <trip arrivalPos="14.79" depart="68634" departPos="4.80" from="nt1_nt2" id="pse151_68400" to="nt3_np3" type="griddist1"/>
    <trip arrivalPos="1.34" depart="68637" departPos="108.97" from="nt14_nt15" id="pse152_68400" to="nt4_np4" type="griddist1"/>
    <trip arrivalPos="49.30" depart="68639" departPos="106.95" from="nt2_nt3" id="pse153_68400" to="nt4_np4" type="griddist1"/>
    <trip arrivalPos="17.97" depart="68640" departPos="33.17" from="np11_nt14" id="pse154_68400" to="nt3_np3" type="griddist1"/>
    <trip arrivalPos="62.60" depart="68641" departPos="145.91" from="nt9_nt5" id="pse155_68400" to="nt2_np2" type="griddist1"/>
    <trip arrivalPos="6.76" depart="68648" departPos="24.08" from="np9_nt16" id="pse156_68400" to="nt2_np2" type="griddist1"/>
    <trip arrivalPos="42.80" depart="68649" departPos="37.16" from="np11_nt14" id="pse157_68400" to="nt2_np2" type="griddist1"/>
    <trip arrivalPos="5.69" depart="68655" departPos="2.75" from="np7_nt12" id="pse158_68400" to="nt4_np4" type="griddist1"/>
    <trip arrivalPos="55.87" depart="68660" departPos="57.94" from="np12_nt13" id="pse159_68400" to="nt1_np1" type="griddist1"/>
    <trip arrivalPos="29.84" depart="68662" departPos="155.79" from="nt4_nt8" id="pse160_68400" to="nt1_np1" type="griddist1"/>
    <trip arrivalPos="32.20" depart="68663" departPos="46.70" from="np10_nt15" id="pse161_68400" to="nt3_np3" type="griddist1"/>
    <trip arrivalPos="8.46" depart="68671" departPos="20.03" from="np9_nt16" id="pse162_68400" to="nt1_np1" type="griddist1"/>
    <trip arrivalPos="1.86" depart="68676" departPos="36.35" from="np12_nt13" id="pse163_68400" to="nt4_np4" type="griddist1"/>
    <trip arrivalPos="20.07" depart="68678" departPos="131.74" from="nt13_nt14" id="pse164_68400" to="nt4_np4" type="griddist1"/>
    <trip arrivalPos="54.35" depart="68680" departPos="16.85" from="np10_nt15" id="pse165_68400" to="nt2_np2" type="griddist1"/>
    <trip arrivalPos="9.95" depart="68681" departPos="48.58" from="np11_nt14" id="pse166_68400" to="nt4_np4" type="griddist1"/>
    <trip arrivalPos="26.84" depart="68683" departPos="130.92" from="nt7_nt8" id="pse167_68400" to="nt2_np2" type="griddist1"/>
    <trip arrivalPos="9.34" depart="68684" departPos="34.26" from="np9_nt16" id="pse168_68400" to="nt2_np2" type="griddist1"/>
    <trip arrivalPos="8.82" depart="68684" departPos="55.97" from="np11_nt14" id="pse169_68400" to="nt3_np3" type="griddist1"/>
    <trip arrivalPos="21.96" depart="68686" departPos="64.08" from="np10_nt15" id="pse170_68400" to="nt4_np4" type="griddist1"/>
    <trip arrivalPos="46.90" depart="68690" departPos="0.48" from="nt3_nt2" id="pse171_68400" to="nt2_np2" type="griddist1"/>
    <trip arrivalPos="55.90" depart="68690" departPos="118.26" from="nt5_nt1" id="pse172_68400" to="nt3_np3" type="griddist1"/>
    <trip arrivalPos="49.28" depart="68692" departPos="24.93" from="np9_nt16" id="pse173_68400" to="nt2_np2" type="griddist1"/>
    <trip arrivalPos="63.36" depart="68697" departPos="56.18" from="np4_nt4" id="pse174_68400" to="nt4_np4" type="griddist1"/>
    <trip arrivalPos="26.54" depart="68698" departPos="64.20" from="np12_nt13" id="pse175_68400" to="nt2_np2" type="griddist1"/>
    <trip arrivalPos="24.63" depart="68700" departPos="61.93" from="np14_nt9" id="pse176_68400" to="nt2_np2" type="griddist1"/>
    <trip arrivalPos="9.83" depart="68708" departPos="116.84" from="nt9_nt13" id="pse177_68400" to="nt4_np4" type="griddist1"/>
    <trip arrivalPos="21.45" depart="68708" departPos="179.17" from="nt8_nt7" id="pse178_68400" to="nt1_np1" type="griddist1"/>
    <trip arrivalPos="58.81" depart="68717" departPos="7.48" from="np11_nt14" id="pse179_68400" to="nt4_np4" type="griddist1"/>
    <trip arrivalPos="62.66" depart="68722" departPos="65.32" from="np10_nt15" id="pse180_68400" to="nt1_np1" type="griddist1"/>
    <trip arrivalPos="40.26" depart="68722" departPos="19.88" from="np10_nt15" id="pse181_68400" to="nt4_np4" type="griddist1"/>
    <trip arrivalPos="43.56" depart="68726" departPos="24.64" from="np6_nt8" id="pse182_68400" to="nt1_np1" type="griddist1"/>
    <trip arrivalPos="57.33" depart="68728" departPos="112.32" from="nt10_nt14" id="pse183_68400" to="nt4_np4" type="griddist1"/>
    <trip arrivalPos="15.17" depart="68730" departPos="46.31" from="np9_nt16" id="pse184_68400" to="nt3_np3" type="griddist1"/>
    <trip arrivalPos="5.84" depart="68735" departPos="40.77" from="nt15_nt11" id="pse185_68400" to="nt2_np2" type="griddist1"/>
    <trip arrivalPos="6.49" depart="68743" departPos="130.64" from="nt9_nt10" id="pse186_68400" to="nt4_np4" type="griddist1"/>
    <trip arrivalPos="20.95" depart="68747" departPos="2.17" from="np11_nt14" id="pse187_68400" to="nt2_np2" type="griddist1"/>
    <trip arrivalPos="15.78" depart="68750" departPos="32.30" from="np10_nt15" id="pse188_68400" to="nt2_np2" type="griddist1"/>
    <trip arrivalPos="11.31" depart="68756" departPos="13.50" from="np8_nt16" id="pse189_68400" to="nt3_np3" type="griddist1"/>
    <trip arrivalPos="32.15" depart="68772" departPos="126.79" from="nt12_nt11" id="pse190_68400" to="nt2_np2" type="griddist1"/>
    <trip arrivalPos="29.69" depart="68778" departPos="114.31" from="nt11_nt15" id="pse191_68400" to="nt1_np1" type="griddist1"/>
    <trip arrivalPos="18.58" depart="68779" departPos="86.35" from="nt14_nt13" id="pse192_68400" to="nt4_np4" type="griddist1"/>
    <trip arrivalPos="63.80" depart="68782" departPos="169.39" from="nt10_nt6" id="pse193_68400" to="nt1_np1" type="griddist1"/>
    <trip arrivalPos="29.51" depart="68782" departPos="51.77" from="np12_nt13" id="pse194_68400" to="nt4_np4" type="griddist1"/>
    <trip arrivalPos="6.89" depart="68783" departPos="57.86" from="np13_nt13" id="pse195_68400" to="nt4_np4" type="griddist1"/>
    <trip arrivalPos="45.17" depart="68786" departPos="22.19" from="np5_nt4" id="pse196_68400" to="nt2_np2" type="griddist1"/>
    <trip arrivalPos="0.52" depart="68796" departPos="29.69" from="np10_nt15" id="pse197_68400" to="nt4_np4" type="griddist1"/>
    <trip arrivalPos="58.83" depart="68797" departPos="174.47" from="nt6_nt10" id="pse198_68400" to="nt4_np4" type="griddist1"/>
    <trip arrivalPos="50.11" depart="68801" departPos="161.81" from="nt1_nt5" id="pse199_68400" to="nt4_np4" type="griddist1"/>
    <trip arrivalPos="12.28" depart="68803" departPos="16.43" from="np12_nt13" id="pse1100_68400" to="nt4_np4" type="griddist1"/>
    <trip arrivalPos="43.98" depart="68809" departPos="57.56" from="np12_nt13" id="pse1101_68400" to="nt4_np4" type="griddist1"/>
    <trip arrivalPos="2.55" depart="68813" departPos="47.06" from="np11_nt14" id="pse1102_68400" to="nt1_np1" type="griddist1"/>
    <trip arrivalPos="8.49" depart="68818" departPos="67.72" from="nt3_nt2" id="pse1103_68400" to="nt1_np1" type="griddist1"/>
    <trip arrivalPos="12.97" depart="68819" departPos="74.46" from="nt7_nt11" id="pse1104_68400" to="nt2_np2" type="griddist1"/>
    <trip arrivalPos="32.42" depart="68821" departPos="67.90" from="nt3_nt2" id="pse1105_68400" to="nt4_np4" type="griddist1"/>
    <trip arrivalPos="60.99" depart="68824" departPos="68.55" from="np12_nt13" id="pse1106_68400" to="nt1_np1" type="griddist1"/>
    <trip arrivalPos="51.95" depart="68835" departPos="161.55" from="nt8_nt7" id="pse1107_68400" to="nt2_np2" type="griddist1"/>
    <trip arrivalPos="14.57" depart="68836" departPos="56.56" from="np9_nt16" id="pse1108_68400" to="nt1_np1" type="griddist1"/>
    <trip arrivalPos="54.64" depart="68838" departPos="73.76" from="nt14_nt15" id="pse1109_68400" to="nt3_np3" type="griddist1"/>
    <trip arrivalPos="17.08" depart="68842" departPos="73.23" from="nt10_nt9" id="pse1110_68400" to="nt1_np1" type="griddist1"/>
    <trip arrivalPos="16.94" depart="68844" departPos="56.18" from="np11_nt14" id="pse1111_68400" to="nt2_np2" type="griddist1"/>
    <trip arrivalPos="43.59" depart="68847" departPos="27.86" from="np5_nt4" id="pse1112_68400" to="nt3_np3" type="griddist1"/>
    <trip arrivalPos="21.19" depart="68849" departPos="70.74" from="np9_nt16" id="pse1113_68400" to="nt3_np3" type="griddist1"/>
    <trip arrivalPos="29.99" depart="68856" departPos="113.86" from="nt12_nt16" id="pse1114_68400" to="nt3_np3" type="griddist1"/>
    <trip arrivalPos="2.93" depart="68856" departPos="21.66" from="nt15_nt16" id="pse1115_68400" to="nt3_np3" type="griddist1"/>
    <trip arrivalPos="15.17" depart="68858" departPos="8.71" from="np10_nt15" id="pse1116_68400" to="nt4_np4" type="griddist1"/>
    <trip arrivalPos="61.33" depart="68858" departPos="66.49" from="nt10_nt14" id="pse1117_68400" to="nt2_np2" type="griddist1"/>
    <trip arrivalPos="46.94" depart="68869" departPos="109.01" from="nt15_nt14" id="pse1118_68400" to="nt3_np3" type="griddist1"/>
    <trip arrivalPos="39.77" depart="68872" departPos="154.73" from="nt6_nt5" id="pse1119_68400" to="nt3_np3" type="griddist1"/>
    <trip arrivalPos="14.04" depart="68872" departPos="128.12" from="nt7_nt8" id="pse1120_68400" to="nt2_np2" type="griddist1"/>
    <trip arrivalPos="63.37" depart="68873" departPos="27.20" from="np9_nt16" id="pse1121_68400" to="nt1_np1" type="griddist1"/>
    <trip arrivalPos="3.91" depart="68891" departPos="41.66" from="np3_nt3" id="pse1122_68400" to="nt4_np4" type="griddist1"/>
    <trip arrivalPos="53.24" depart="68895" departPos="71.18" from="np12_nt13" id="pse1123_68400" to="nt4_np4" type="griddist1"/>
    <trip arrivalPos="62.73" depart="68897" departPos="47.96" from="np10_nt15" id="pse1124_68400" to="nt1_np1" type="griddist1"/>
    <trip arrivalPos="50.84" depart="68910" departPos="74.16" from="np10_nt15" id="pse1125_68400" to="nt2_np2" type="griddist1"/>
    <trip arrivalPos="37.88" depart="68911" departPos="41.57" from="np12_nt13" id="pse1126_68400" to="nt4_np4" type="griddist1"/>
    <trip arrivalPos="50.95" depart="68915" departPos="143.72" from="nt4_nt3" id="pse1127_68400" to="nt1_np1" type="griddist1"/>
    <trip arrivalPos="63.79" depart="68921" departPos="176.34" from="nt11_nt7" id="pse1128_68400" to="nt2_np2" type="griddist1"/>
    <trip arrivalPos="55.97" depart="68922" departPos="19.70" from="nt10_nt6" id="pse1129_68400" to="nt4_np4" type="griddist1"/>
    <trip arrivalPos="38.04" depart="68922" departPos="59.13" from="np11_nt14" id="pse1130_68400" to="nt2_np2" type="griddist1"/>
    <trip arrivalPos="27.19" depart="68925" departPos="9.51" from="np10_nt15" id="pse1131_68400" to="nt2_np2" type="griddist1"/>
    <trip arrivalPos="23.39" depart="68935" departPos="33.62" from="np11_nt14" id="pse1132_68400" to="nt1_np1" type="griddist1"/>
    <trip arrivalPos="39.74" depart="68936" departPos="39.70" from="nt11_nt7" id="pse1133_68400" to="nt2_np2" type="griddist1"/>
    <trip arrivalPos="19.49" depart="68941" departPos="122.29" from="nt16_nt15" id="pse1134_68400" to="nt4_np4" type="griddist1"/>
    <trip arrivalPos="54.74" depart="68942" departPos="178.95" from="nt13_nt9" id="pse1135_68400" to="nt1_np1" type="griddist1"/>
    <trip arrivalPos="28.65" depart="68946" departPos="53.43" from="np9_nt16" id="pse1136_68400" to="nt1_np1" type="griddist1"/>
    <trip arrivalPos="8.15" depart="68950" departPos="27.53" from="nt6_nt7" id="pse1137_68400" to="nt2_np2" type="griddist1"/>
    <trip arrivalPos="24.61" depart="68955" departPos="127.62" from="nt12_nt8" id="pse1138_68400" to="nt3_np3" type="griddist1"/>
    <trip arrivalPos="27.79" depart="68966" departPos="90.59" from="nt11_nt7" id="pse1139_68400" to="nt2_np2" type="griddist1"/>
    <trip arrivalPos="56.70" depart="68966" departPos="121.51" from="nt3_nt4" id="pse1140_68400" to="nt1_np1" type="griddist1"/>
    <trip arrivalPos="57.37" depart="68971" departPos="79.82" from="nt10_nt9" id="pse1141_68400" to="nt4_np4" type="griddist1"/>
    <trip arrivalPos="47.13" depart="68971" departPos="29.90" from="np8_nt16" id="pse1142_68400" to="nt4_np4" type="griddist1"/>
    <trip arrivalPos="61.60" depart="68974" departPos="17.28" from="np14_nt9" id="pse1143_68400" to="nt2_np2" type="griddist1"/>
    <trip arrivalPos="5.51" depart="68985" departPos="16.35" from="nt15_nt11" id="pse1144_68400" to="nt2_np2" type="griddist1"/>
    <trip arrivalPos="8.41" depart="69003" departPos="27.95" from="np9_nt16" id="pse1145_68400" to="nt3_np3" type="griddist1"/>
    <trip arrivalPos="43.28" depart="69004" departPos="42.13" from="np10_nt15" id="pse1146_68400" to="nt4_np4" type="griddist1"/>
    <trip arrivalPos="27.32" depart="69006" departPos="70.58" from="np8_nt16" id="pse1147_68400" to="nt4_np4" type="griddist1"/>
    <trip arrivalPos="20.18" depart="69010" departPos="51.54" from="nt7_nt3" id="pse1148_68400" to="nt1_np1" type="griddist1"/>
    <trip arrivalPos="31.15" depart="69017" departPos="11.60" from="np11_nt14" id="pse1149_68400" to="nt3_np3" type="griddist1"/>
    <trip arrivalPos="7.42" depart="69025" departPos="103.24" from="nt5_nt6" id="pse1150_68400" to="nt2_np2" type="griddist1"/>
    <trip arrivalPos="36.24" depart="69026" departPos="32.18" from="np12_nt13" id="pse1151_68400" to="nt1_np1" type="griddist1"/>
    <trip arrivalPos="35.97" depart="69026" departPos="125.28" from="nt2_nt3" id="pse1152_68400" to="nt3_np3" type="griddist1"/>
    <trip arrivalPos="1.87" depart="69033" departPos="128.71" from="nt12_nt11" id="pse1153_68400" to="nt3_np3" type="griddist1"/>
    <trip arrivalPos="22.68" depart="69034" departPos="69.12" from="np12_nt13" id="pse1154_68400" to="nt4_np4" type="griddist1"/>
    <trip arrivalPos="4.50" depart="69036" departPos="49.30" from="np11_nt14" id="pse1155_68400" to="nt1_np1" type="griddist1"/>
    <trip arrivalPos="34.27" depart="69036" departPos="16.44" from="nt1_nt5" id="pse1156_68400" to="nt4_np4" type="griddist1"/>
    <trip arrivalPos="20.13" depart="69044" departPos="10.17" from="np4_nt4" id="pse1157_68400" to="nt2_np2" type="griddist1"/>
    <trip arrivalPos="57.06" depart="69046" departPos="40.42" from="np15_nt5" id="pse1158_68400" to="nt4_np4" type="griddist1"/>
    <trip arrivalPos="5.27" depart="69047" departPos="3.73" from="np11_nt14" id="pse1159_68400" to="nt4_np4" type="griddist1"/>
    <trip arrivalPos="26.76" depart="69051" departPos="45.53" from="np9_nt16" id="pse1160_68400" to="nt2_np2" type="griddist1"/>
    <trip arrivalPos="7.16" depart="69052" departPos="25.89" from="np12_nt13" id="pse1161_68400" to="nt3_np3" type="griddist1"/>
    <trip arrivalPos="19.92" depart="69053" departPos="97.80" from="nt14_nt15" id="pse1162_68400" to="nt3_np3" type="griddist1"/>
    <trip arrivalPos="13.21" depart="69055" departPos="4.11" from="np12_nt13" id="pse1163_68400" to="nt4_np4" type="griddist1"/>
    <trip arrivalPos="18.70" depart="69061" departPos="136.94" from="nt8_nt12" id="pse1164_68400" to="nt4_np4" type="griddist1"/>
    <trip arrivalPos="8.35" depart="69061" departPos="32.30" from="np11_nt14" id="pse1165_68400" to="nt2_np2" type="griddist1"/>
    <trip arrivalPos="43.16" depart="69065" departPos="100.12" from="nt10_nt14" id="pse1166_68400" to="nt1_np1" type="griddist1"/>
    <trip arrivalPos="28.18" depart="69066" departPos="47.94" from="np2_nt2" id="pse1167_68400" to="nt2_np2" type="griddist1"/>
    <trip arrivalPos="27.73" depart="69069" departPos="23.48" from="np9_nt16" id="pse1168_68400" to="nt1_np1" type="griddist1"/>
    <trip arrivalPos="26.17" depart="69074" departPos="21.71" from="np7_nt12" id="pse1169_68400" to="nt3_np3" type="griddist1"/>
    <trip arrivalPos="29.72" depart="69076" departPos="175.88" from="nt8_nt7" id="pse1170_68400" to="nt1_np1" type="griddist1"/>
    <trip arrivalPos="6.84" depart="69076" departPos="78.26" from="nt15_nt11" id="pse1171_68400" to="nt2_np2" type="griddist1"/>
    <trip arrivalPos="56.24" depart="69081" departPos="5.90" from="np9_nt16" id="pse1172_68400" to="nt2_np2" type="griddist1"/>
    <trip arrivalPos="4.93" depart="69095" departPos="139.62" from="nt1_nt5" id="pse1173_68400" to="nt1_np1" type="griddist1"/>
    <trip arrivalPos="50.14" depart="69100" departPos="35.99" from="nt13_nt14" id="pse1174_68400" to="nt3_np3" type="griddist1"/>
    <trip arrivalPos="9.54" depart="69112" departPos="41.70" from="np2_nt2" id="pse1175_68400" to="nt4_np4" type="griddist1"/>
    <trip arrivalPos="9.88" depart="69120" departPos="13.01" from="np11_nt14" id="pse1176_68400" to="nt2_np2" type="griddist1"/>
    <trip arrivalPos="40.57" depart="69125" departPos="176.56" from="nt2_nt1" id="pse1177_68400" to="nt1_np1" type="griddist1"/>
    <trip arrivalPos="44.00" depart="69131" departPos="43.46" from="np9_nt16" id="pse1178_68400" to="nt3_np3" type="griddist1"/>
    <trip arrivalPos="20.88" depart="69131" departPos="183.10" from="nt6_nt5" id="pse1179_68400" to="nt3_np3" type="griddist1"/>
    <trip arrivalPos="30.29" depart="69134" departPos="81.62" from="nt9_nt10" id="pse1180_68400" to="nt2_np2" type="griddist1"/>
    <trip arrivalPos="22.74" depart="69144" departPos="109.77" from="nt13_nt14" id="pse1181_68400" to="nt4_np4" type="griddist1"/>
    <trip arrivalPos="23.82" depart="69151" departPos="2.82" from="np10_nt15" id="pse1182_68400" to="nt2_np2" type="griddist1"/>
    <trip arrivalPos="5.83" depart="69161" departPos="73.30" from="np12_nt13" id="pse1183_68400" to="nt3_np3" type="griddist1"/>
    <trip arrivalPos="61.64" depart="69177" departPos="104.00" from="nt11_nt7" id="pse1184_68400" to="nt2_np2" type="griddist1"/>
    <trip arrivalPos="36.93" depart="69178" departPos="168.72" from="nt1_nt2" id="pse1185_68400" to="nt1_np1" type="griddist1"/>
    <trip arrivalPos="61.87" depart="69179" departPos="37.60" from="np11_nt14" id="pse1186_68400" to="nt3_np3" type="griddist1"/>
    <trip arrivalPos="63.46" depart="69179" departPos="62.80" from="np9_nt16" id="pse1187_68400" to="nt4_np4" type="griddist1"/>
    <trip arrivalPos="45.71" depart="69184" departPos="2.94" from="np10_nt15" id="pse1188_68400" to="nt3_np3" type="griddist1"/>
    <trip arrivalPos="23.51" depart="69185" departPos="109.28" from="nt9_nt5" id="pse1189_68400" to="nt3_np3" type="griddist1"/>
    <trip arrivalPos="43.86" depart="69187" departPos="138.78" from="nt7_nt3" id="pse1190_68400" to="nt2_np2" type="griddist1"/>
    <trip arrivalPos="21.30" depart="69191" departPos="25.10" from="np10_nt15" id="pse1191_68400" to="nt3_np3" type="griddist1"/>
    <trip arrivalPos="55.01" depart="69196" departPos="46.77" from="nt10_nt9" id="pse1192_68400" to="nt2_np2" type="griddist1"/>
    <trip arrivalPos="5.27" depart="69207" departPos="27.91" from="nt8_nt7" id="pse1193_68400" to="nt3_np3" type="griddist1"/>
    <trip arrivalPos="42.38" depart="69214" departPos="57.58" from="nt14_nt13" id="pse1194_68400" to="nt4_np4" type="griddist1"/>
    <trip arrivalPos="5.47" depart="69214" departPos="131.56" from="nt14_nt13" id="pse1195_68400" to="nt1_np1" type="griddist1"/>
    <trip arrivalPos="8.26" depart="69215" departPos="60.97" from="nt10_nt9" id="pse1196_68400" to="nt3_np3" type="griddist1"/>
    <trip arrivalPos="58.94" depart="69217" departPos="185.07" from="nt15_nt16" id="pse1197_68400" to="nt4_np4" type="griddist1"/>
    <trip arrivalPos="1.18" depart="69223" departPos="38.14" from="np10_nt15" id="pse1198_68400" to="nt3_np3" type="griddist1"/>
    <trip arrivalPos="49.49" depart="69233" departPos="23.17" from="np13_nt13" id="pse1199_68400" to="nt4_np4" type="griddist1"/>
    <trip arrivalPos="19.11" depart="69236" departPos="11.62" from="np11_nt14" id="pse1200_68400" to="nt4_np4" type="griddist1"/>
    <trip arrivalPos="47.72" depart="69247" departPos="100.18" from="nt3_nt2" id="pse1201_68400" to="nt3_np3" type="griddist1"/>
    <trip arrivalPos="39.92" depart="69258" departPos="162.66" from="nt10_nt11" id="pse1202_68400" to="nt3_np3" type="griddist1"/>
    <trip arrivalPos="44.76" depart="69260" departPos="32.41" from="nt11_nt7" id="pse1203_68400" to="nt1_np1" type="griddist1"/>
    <trip arrivalPos="2.82" depart="69260" departPos="129.24" from="nt12_nt8" id="pse1204_68400" to="nt4_np4" type="griddist1"/>
    <trip arrivalPos="39.44" depart="69262" departPos="62.64" from="np3_nt3" id="pse1205_68400" to="nt3_np3" type="griddist1"/>
    <trip arrivalPos="15.45" depart="69264" departPos="43.43" from="nt2_nt1" id="pse1206_68400" to="nt4_np4" type="griddist1"/>
    <trip arrivalPos="12.53" depart="69266" departPos="167.78" from="nt8_nt7" id="pse1207_68400" to="nt4_np4" type="griddist1"/>
    <trip arrivalPos="49.71" depart="69267" departPos="81.77" from="nt14_nt15" id="pse1208_68400" to="nt3_np3" type="griddist1"/>
    <trip arrivalPos="10.47" depart="69270" departPos="75.02" from="nt2_nt6" id="pse1209_68400" to="nt3_np3" type="griddist1"/>
    <trip arrivalPos="3.37" depart="69273" departPos="65.48" from="np11_nt14" id="pse1210_68400" to="nt3_np3" type="griddist1"/>
    <trip arrivalPos="45.96" depart="69275" departPos="70.07" from="np9_nt16" id="pse1211_68400" to="nt2_np2" type="griddist1"/>
    <trip arrivalPos="10.36" depart="69275" departPos="6.29" from="np9_nt16" id="pse1212_68400" to="nt1_np1" type="griddist1"/>
    <trip arrivalPos="5.92" depart="69276" departPos="62.33" from="np9_nt16" id="pse1213_68400" to="nt3_np3" type="griddist1"/>
    <trip arrivalPos="60.11" depart="69277" departPos="158.53" from="nt7_nt3" id="pse1214_68400" to="nt4_np4" type="griddist1"/>
    <trip arrivalPos="24.95" depart="69281" departPos="28.05" from="np8_nt16" id="pse1215_68400" to="nt2_np2" type="griddist1"/>
    <trip arrivalPos="6.40" depart="69291" departPos="23.90" from="np10_nt15" id="pse1216_68400" to="nt1_np1" type="griddist1"/>
    <trip arrivalPos="2.47" depart="69295" departPos="26.17" from="nt16_nt12" id="pse1217_68400" to="nt2_np2" type="griddist1"/>
    <trip arrivalPos="49.02" depart="69296" departPos="148.93" from="nt7_nt3" id="pse1218_68400" to="nt2_np2" type="griddist1"/>
    <trip arrivalPos="1.23" depart="69298" departPos="67.94" from="np9_nt16" id="pse1219_68400" to="nt3_np3" type="griddist1"/>
    <trip arrivalPos="39.33" depart="69298" departPos="70.52" from="np12_nt13" id="pse1220_68400" to="nt1_np1" type="griddist1"/>
    <trip arrivalPos="7.87" depart="69299" departPos="17.82" from="np9_nt16" id="pse1221_68400" to="nt4_np4" type="griddist1"/>
    <trip arrivalPos="4.06" depart="69302" departPos="46.71" from="np12_nt13" id="pse1222_68400" to="nt3_np3" type="griddist1"/>
    <trip arrivalPos="40.82" depart="69302" departPos="96.06" from="nt5_nt1" id="pse1223_68400" to="nt2_np2" type="griddist1"/>
    <trip arrivalPos="0.10" depart="69303" departPos="54.06" from="nt11_nt12" id="pse1224_68400" to="nt3_np3" type="griddist1"/>
    <trip arrivalPos="43.17" depart="69311" departPos="12.10" from="np2_nt2" id="pse1225_68400" to="nt3_np3" type="griddist1"/>
    <trip arrivalPos="35.15" depart="69313" departPos="176.95" from="nt10_nt11" id="pse1226_68400" to="nt2_np2" type="griddist1"/>
    <trip arrivalPos="56.42" depart="69314" departPos="3.77" from="nt3_nt2" id="pse1227_68400" to="nt3_np3" type="griddist1"/>
    <trip arrivalPos="48.28" depart="69320" departPos="28.00" from="np10_nt15" id="pse1228_68400" to="nt2_np2" type="griddist1"/>
    <trip arrivalPos="42.45" depart="69320" departPos="15.58" from="np2_nt2" id="pse1229_68400" to="nt1_np1" type="griddist1"/>
    <trip arrivalPos="8.62" depart="69332" departPos="56.75" from="np11_nt14" id="pse1230_68400" to="nt3_np3" type="griddist1"/>
    <trip arrivalPos="53.64" depart="69333" departPos="41.52" from="np2_nt2" id="pse1231_68400" to="nt2_np2" type="griddist1"/>