<routes>
    <trip arrivalPos="53.94" depart="72001" departPos="31.62" from="np12_nt13" id="pse10_72000" to="nt4_np4" type="griddist1"/>
    <trip arrivalPos="61.49" depart="72002" departPos="3.91" from="np9_nt16" id="pse11_72000" to="nt3_np3" type="griddist1"/>
    <trip arrivalPos="2.60" depart="72006" departPos="71.80" from="np12_nt13" id="pse12_72000" to="nt1_np1" type="griddist1"/>
    <trip arrivalPos="40.14" depart="72008" departPos="62.94" from="np10_nt15" id="pse13_72000" to="nt1_np1" type="griddist1"/>
    <trip arrivalPos="61.23" depart="72013" departPos="8.58" from="np12_nt13" id="pse14_72000" to="nt2_np2" type="griddist1"/>
    <trip arrivalPos="39.14" depart="72014" departPos="27.67" from="np9_nt16" id="pse15_72000" to="nt2_np2" type="griddist1"/>
    <trip arrivalPos="10.58" depart="72022" departPos="144.36" from="nt8_nt7" id="pse16_72000" to="nt3_np3" type="griddist1"/>
    <trip arrivalPos="37.20" depart="72024" departPos="62.98" from="np14_nt9" id="pse17_72000" to="nt3_np3" type="griddist1"/>
    <trip arrivalPos="12.81" depart="72026" departPos="168.71" from="nt7_nt11" id="pse18_72000" to="nt2_np2" type="griddist1"/>
    <trip arrivalPos="45.04" depart="72029" departPos="43.52" from="nt11_nt7" id="pse19_72000" to="nt4_np4" type="griddist1"/>
    <trip arrivalPos="51.44" depart="72032" departPos="54.61" from="np13_nt13" id="pse110_72000" to="nt3_np3" type="griddist1"/>
    <trip arrivalPos="42.73" depart="72038" departPos="98.88" from="nt11_nt10" id="pse111_72000" to="nt1_np1" type="griddist1"/>
    <trip arrivalPos="27.14" depart="72039" departPos="0.95" from="np10_nt15" id="pse112_72000" to="nt3_np3" type="griddist1"/>
    <trip arrivalPos="57.60" depart="72047" departPos="27.16" from="np9_nt16" id="pse113_72000" to="nt2_np2" type="griddist1"/>
    <trip arrivalPos="33.70" depart="72060" departPos="13.21" from="np9_nt16" id="pse114_72000" to="nt1_np1" type="griddist1"/>
    <trip arrivalPos="50.04" depart="72079" departPos="164.80" from="nt14_nt10" id="pse115_72000" to="nt3_np3" type="griddist1"/>
    <trip arrivalPos="20.82" depart="72080" departPos="44.44" from="np9_nt16" id="pse116_72000" to="nt4_np4" type="griddist1"/>
    <trip arrivalPos="29.12" depart="72086" departPos="20.92" from="np12_nt13" id="pse117_72000" to="nt4_np4" type="griddist1"/>
    <trip arrivalPos="21.73" depart="72096" departPos="124.02" from="nt2_nt1" id="pse118_72000" to="nt3_np3" type="griddist1"/>
    <trip arrivalPos="22.92" depart="72100" departPos="36.57" from="np9_nt16" id="pse119_72000" to="nt2_np2" type="griddist1"/>
    <trip arrivalPos="56.85" depart="72101" departPos="44.71" from="np12_nt13" id="pse120_72000" to="nt2_np2" type="griddist1"/>
    <trip arrivalPos="15.59" depart="72102" departPos="35.46" from="nt10_nt9" id="pse121_72000" to="nt3_np3" type="griddist1"/>
    <trip arrivalPos="30.76" depart="72108" departPos="18.02" from="np7_nt12" id="pse122_72000" to="nt3_np3" type="griddist1"/>
    <trip arrivalPos="19.01" depart="72110" departPos="3.09" from="nt16_nt12" id="pse123_72000" to="nt2_np2" type="griddist1"/>
    <trip arrivalPos="23.84" depart="72111" departPos="49.80" from="np7_nt12" id="pse124_72000" to="nt1_np1" type="griddist1"/>
    <trip arrivalPos="35.56" depart="72113" departPos="184.97" from="nt10_nt9" id="pse125_72000" to="nt2_np2" type="griddist1"/>
    <trip arrivalPos="14.89" depart="72118" departPos="19.81" from="np2_nt2" id="pse126_72000" to="nt2_np2" type="griddist1"/>
    <trip arrivalPos="61.43" depart="72122" departPos="137.88" from="nt16_nt15" id="pse127_72000" to="nt2_np2" type="griddist1"/>
    <trip arrivalPos="17.86" depart="72128" departPos="137.09" from="nt15_nt14" id="pse128_72000" to="nt1_np1" type="griddist1"/>
    <trip arrivalPos="63.34" depart="72130" departPos="106.94" from="nt11_nt15" id="pse129_72000" to="nt4_np4" type="griddist1"/>
    <trip arrivalPos="19.53" depart="72131" departPos="64.67" from="nt5_nt1" id="pse130_72000" to="nt2_np2" type="griddist1"/>
    <trip arrivalPos="3.52" depart="72147" departPos="8.45" from="nt15_nt16" id="pse131_72000" to="nt1_np1" type="griddist1"/>
    <trip arrivalPos="48.63" depart="72156" departPos="47.84" from="np12_nt13" id="pse132_72000" to="nt4_np4" type="griddist1"/>
    <trip arrivalPos="30.92" depart="72158" departPos="21.33" from="np11_nt14" id="pse133_72000" to="nt1_np1" type="griddist1"/>
    <trip arrivalPos="55.67" depart="72162" departPos="16.31" from="np1_nt1" id="pse134_72000" to="nt4_np4" type="griddist1"/>
    <trip arrivalPos="37.28" depart="72163" departPos="36.88" from="np11_nt14" id="pse135_72000" to="nt1_np1" type="griddist1"/>
    <trip arrivalPos="61.31" depart="72171" departPos="145.36" from="nt15_nt11" id="pse136_72000" to="nt1_np1" type="griddist1"/>
    <trip arrivalPos="26.88" depart="72177" departPos="41.86" from="np10_nt15" id="pse137_72000" to="nt1_np1" type="griddist1"/>
    <trip arrivalPos="24.57" depart="72180" departPos="139.00" from="nt11_nt7" id="pse138_72000" to="nt3_np3" type="griddist1"/>
    <trip arrivalPos="27.70" depart="72181" departPos="105.46" from="nt7_nt11" id="pse139_72000" to="nt2_np2" type="griddist1"/>
    <trip arrivalPos="6.41" depart="72187" departPos="178.20" from="nt11_nt10" id="pse140_72000" to="nt1_np1" type="griddist1"/>
    <trip arrivalPos="5.24" depart="72189" departPos="49.12" from="nt2_nt3" id="pse141_72000" to="nt3_np3" type="griddist1"/>
    <trip arrivalPos="26.39" depart="72192" departPos="11.74" from="np12_nt13" id="pse142_72000" to="nt3_np3" type="griddist1"/>
    <trip arrivalPos="18.61" depart="72205" departPos="5.85" from="nt15_nt11" id="pse143_72000" to="nt2_np2" type="griddist1"/>
    <trip arrivalPos="15.08" depart="72205" departPos="5.34" from="np12_nt13" id="pse144_72000" to="nt4_np4" type="griddist1"/>
    <trip arrivalPos="51.93" depart="72205" departPos="44.23" from="np12_nt13" id="pse145_72000" to="nt4_np4" type="griddist1"/>
    <trip arrivalPos="9.62" depart="72207" departPos="16.86" from="np11_nt14" id="pse146_72000" to="nt1_np1" type="griddist1"/>
    <trip arrivalPos="51.20" depart="72208" departPos="4.47" from="np12_nt13" id="pse147_72000" to="nt1_np1" type="griddist1"/>
    <trip arrivalPos="28.37" depart="72221" departPos="165.08" from="nt11_nt7" id="pse148_72000" to="nt4_np4" type="griddist1"/>
    <trip arrivalPos="17.59" depart="72229" departPos="30.19" from="np9_nt16" id="pse149_72000" to="nt2_np2" type="griddist1"/>
    <trip arrivalPos="57.46" depart="72232" departPos="107.17" from="nt10_nt14" id="pse150_72000" to="nt2_np2" type="griddist1"/>
    <trip arrivalPos="14.79" depart="72234" departPos="4.80" from="nt1_nt2" id="pse151_72000" to="nt3_np3" type="griddist1"/>
    <trip arrivalPos="1.34" depart="72237" departPos="108.97" from="nt14_nt15" id="pse152_72000" to="nt4_np4" type="griddist1"/>
    <trip arrivalPos="49.30" depart="72239" departPos="106.95" from="nt2_nt3" id="pse153_72000" to="nt4_np4" type="griddist1"/>
    <trip arrivalPos="17.97" depart="72240" departPos="33.17" from="np11_nt14" id="pse154_72000" to="nt3_np3" type="griddist1"/>
    <trip arrivalPos="62.60" depart="72241" departPos="145.91" from="nt9_nt5" id="pse155_72000" to="nt2_np2" type="griddist1"/>
    <trip arrivalPos="6.76" depart="72248" departPos="24.08" from="np9_nt16" id="pse156_72000" to="nt2_np2" type="griddist1"/>
    <trip arrivalPos="42.80" depart="72249" departPos="37.16" from="np11_nt14" id="pse157_72000" to="nt2_np2" type="griddist1"/>
    <trip arrivalPos="5.69" depart="72255" departPos="2.75" from="np7_nt12" id="pse158_72000" to="nt4_np4" type="griddist1"/>
    <trip arrivalPos="55.87" depart="72260" departPos="57.94" from="np12_nt13" id="pse159_72000" to="nt1_np1" type="griddist1"/>
    <trip arrivalPos="29.84" depart="72262" departPos="155.79" from="nt4_nt8" id="pse160_72000" to="nt1_np1" type="griddist1"/>
    <trip arrivalPos="32.20" depart="72263" departPos="46.70" from="np10_nt15" id="pse161_72000" to="nt3_np3" type="griddist1"/>
    <trip arrivalPos="8.46" depart="72271" departPos="20.03" from="np9_nt16" id="pse162_72000" to="nt1_np1" type="griddist1"/>
    <trip arrivalPos="1.86" depart="72276" departPos="36.35" from="np12_nt13" id="pse163_72000" to="nt4_np4" type="griddist1"/>
    <trip arrivalPos="20.07" depart="72278" departPos="131.74" from="nt13_nt14" id="pse164_72000" to="nt4_np4" type="griddist1"/>
    <trip arrivalPos="54.35" depart="72280" departPos="16.85" from="np10_nt15" id="pse165_72000" to="nt2_np2" type="griddist1"/>
    <trip arrivalPos="9.95" depart="72281" departPos="48.58" from="np11_nt14" id="pse166_72000" to="nt4_np4" type="griddist1"/>
    <trip arrivalPos="26.84" depart="72283" departPos="130.92" from="nt7_nt8" id="pse167_72000" to="nt2_np2" type="griddist1"/>
    <trip arrivalPos="9.34" depart="72284" departPos="34.26" from="np9_nt16" id="pse168_72000" to="nt2_np2" type="griddist1"/>
    <trip arrivalPos="8.82" depart="72284" departPos="55.97" from="np11_nt14" id="pse169_72000" to="nt3_np3" type="griddist1"/>
    <trip arrivalPos="21.96" depart="72286" departPos="64.08" from="np10_nt15" id="pse170_72000" to="nt4_np4" type="griddist1"/>
    <trip arrivalPos="46.90" depart="72290" departPos="0.48" from="nt3_nt2" id="pse171_72000" to="nt2_np2" type="griddist1"/>
    <trip arrivalPos="55.90" depart="72290" departPos="118.26" from="nt5_nt1" id="pse172_72000" to="nt3_np3" type="griddist1"/>
    <trip arrivalPos="49.28" depart="72292" departPos="24.93" from="np9_nt16" id="pse173_72000" to="nt2_np2" type="griddist1"/>
    <trip arrivalPos="63.36" depart="72297" departPos="56.18" from="np4_nt4" id="pse174_72000" to="nt4_np4" type="griddist1"/>
    <trip arrivalPos="26.54" depart="72298" departPos="64.20" from="np12_nt13" id="pse175_72000" to="nt2_np2" type="griddist1"/>
    <trip arrivalPos="24.63" depart="72300" departPos="61.93" from="np14_nt9" id="pse176_72000" to="nt2_np2" type="griddist1"/>
    <trip arrivalPos="9.83" depart="72308" departPos="116.84" from="nt9_nt13" id="pse177_72000" to="nt4_np4" type="griddist1"/>
    <trip arrivalPos="21.45" depart="72308" departPos="179.17" from="nt8_nt7" id="pse178_72000" to="nt1_np1" type="griddist1"/>
    <trip arrivalPos="58.81" depart="72317" departPos="7.48" from="np11_nt14" id="pse179_72000" to="nt4_np4" type="griddist1"/>
    <trip arrivalPos="62.66" depart="72322" departPos="65.32" from="np10_nt15" id="pse180_72000" to="nt1_np1" type="griddist1"/>
    <trip arrivalPos="40.26" depart="72322" departPos="19.88" from="np10_nt15" id="pse181_72000" to="nt4_np4" type="griddist1"/>
    <trip arrivalPos="43.56" depart="72326" departPos="24.64" from="np6_nt8" id="pse182_72000" to="nt1_np1" type="griddist1"/>
    <trip arrivalPos="57.33" depart="72328" departPos="112.32" from="nt10_nt14" id="pse183_72000" to="nt4_np4" type="griddist1"/>
    <trip arrivalPos="15.17" depart="72330" departPos="46.31" from="np9_nt16" id="pse184_72000" to="nt3_np3" type="griddist1"/>
    <trip arrivalPos="5.84" depart="72335" departPos="40.77" from="nt15_nt11" id="pse185_72000" to="nt2_np2" type="griddist1"/>
    <trip arrivalPos="6.49" depart="72343" departPos="130.64" from="nt9_nt10" id="pse186_72000" to="nt4_np4" type="griddist1"/>
    <trip arrivalPos="20.95" depart="72347" departPos="2.17" from="np11_nt14" id="pse187_72000" to="nt2_np2" type="griddist1"/>
    <trip arrivalPos="15.78" depart="72350" departPos="32.30" from="np10_nt15" id="pse188_72000" to="nt2_np2" type="griddist1"/>
    <trip arrivalPos="11.31" depart="72356" departPos="13.50" from="np8_nt16" id="pse189_72000" to="nt3_np3" type="griddist1"/>
    <trip arrivalPos="32.15" depart="72372" departPos="126.79" from="nt12_nt11" id="pse190_72000" to="nt2_np2" type="griddist1"/>
    <trip arrivalPos="29.69" depart="72378" departPos="114.31" from="nt11_nt15" id="pse191_72000" to="nt1_np1" type="griddist1"/>
    <trip arrivalPos="18.58" depart="72379" departPos="86.35" from="nt14_nt13" id="pse192_72000" to="nt4_np4" type="griddist1"/>
    <trip arrivalPos="63.80" depart="72382" departPos="169.39" from="nt10_nt6" id="pse193_72000" to="nt1_np1" type="griddist1"/>
    <trip arrivalPos="29.51" depart="72382" departPos="51.77" from="np12_nt13" id="pse194_72000" to="nt4_np4" type="griddist1"/>
    <trip arrivalPos="6.89" depart="72383" departPos="57.86" from="np13_nt13" id="pse195_72000" to="nt4_np4" type="griddist1"/>
    <trip arrivalPos="45.17" depart="72386" departPos="22.19" from="np5_nt4" id="pse196_72000" to="nt2_np2" type="griddist1"/>
    <trip arrivalPos="0.52" depart="72396" departPos="29.69" from="np10_nt15" id="pse197_72000" to="nt4_np4" type="griddist1"/>
    <trip arrivalPos="58.83" depart="72397" departPos="174.47" from="nt6_nt10" id="pse198_72000" to="nt4_np4" type="griddist1"/>
    <trip arrivalPos="50.11" depart="72401" departPos="161.81" from="nt1_nt5" id="pse199_72000" to="nt4_np4" type="griddist1"/>
    <trip arrivalPos="12.28" depart="72403" departPos="16.43" from="np12_nt13" id="pse1100_72000" to="nt4_np4" type="griddist1"/>
    <trip arrivalPos="43.98" depart="72409" departPos="57.56" from="np12_nt13" id="pse1101_72000" to="nt4_np4" type="griddist1"/>
    <trip arrivalPos="2.55" depart="72413" departPos="47.06" from="np11_nt14" id="pse1102_72000" to="nt1_np1" type="griddist1"/>
    <trip arrivalPos="8.49" depart="72418" departPos="67.72" from="nt3_nt2" id="pse1103_72000" to="nt1_np1" type="griddist1"/>
    <trip arrivalPos="12.97" depart="72419" departPos="74.46" from="nt7_nt11" id="pse1104_72000" to="nt2_np2" type="griddist1"/>
    <trip arrivalPos="32.42" depart="72421" departPos="67.90" from="nt3_nt2" id="pse1105_72000" to="nt4_np4" type="griddist1"/>
    <trip arrivalPos="60.99" depart="72424" departPos="68.55" from="np12_nt13" id="pse1106_72000" to="nt1_np1" type="griddist1"/>
    <trip arrivalPos="51.95" depart="72435" departPos="161.55" from="nt8_nt7" id="pse1107_72000" to="nt2_np2" type="griddist1"/>
    <trip arrivalPos="14.57" depart="72436" departPos="56.56" from="np9_nt16" id="pse1108_72000" to="nt1_np1" type="griddist1"/>
    <trip arrivalPos="54.64" depart="72438" departPos="73.76" from="nt14_nt15" id="pse1109_72000" to="nt3_np3" type="griddist1"/>
    <trip arrivalPos="17.08" depart="72442" departPos="73.23" from="nt10_nt9" id="pse1110_72000" to="nt1_np1" type="griddist1"/>
    <trip arrivalPos="16.94" depart="72444" departPos="56.18" from="np11_nt14" id="pse1111_72000" to="nt2_np2" type="griddist1"/>
    <trip arrivalPos="43.59" depart="72447" departPos="27.86" from="np5_nt4" id="pse1112_72000" to="nt3_np3" type="griddist1"/>
    <trip arrivalPos="21.19" depart="72449" departPos="70.74" from="np9_nt16" id="pse1113_72000" to="nt3_np3" type="griddist1"/>
    <trip arrivalPos="29.99" depart="72456" departPos="113.86" from="nt12_nt16" id="pse1114_72000" to="nt3_np3" type="griddist1"/>
    <trip arrivalPos="2.93" depart="72456" departPos="21.66" from="nt15_nt16" id="pse1115_72000" to="nt3_np3" type="griddist1"/>
    <trip arrivalPos="15.17" depart="72458" departPos="8.71" from="np10_nt15" id="pse1116_72000" to="nt4_np4" type="griddist1"/>
    <trip arrivalPos="61.33" depart="72458" departPos="66.49" from="nt10_nt14" id="pse1117_72000" to="nt2_np2" type="griddist1"/>
    <trip arrivalPos="46.94" depart="72469" departPos="109.01" from="nt15_nt14" id="pse1118_72000" to="nt3_np3" type="griddist1"/>
    <trip arrivalPos="39.77" depart="72472" departPos="154.73" from="nt6_nt5" id="pse1119_72000" to="nt3_np3" type="griddist1"/>
    <trip arrivalPos="14.04" depart="72472" departPos="128.12" from="nt7_nt8" id="pse1120_72000" to="nt2_np2" type="griddist1"/>
    <trip arrivalPos="63.37" depart="72473" departPos="27.20" from="np9_nt16" id="pse1121_72000" to="nt1_np1" type="griddist1"/>
    <trip arrivalPos="3.91" depart="72491" departPos="41.66" from="np3_nt3" id="pse1122_72000" to="nt4_np4" type="griddist1"/>
    <trip arrivalPos="53.24" depart="72495" departPos="71.18" from="np12_nt13" id="pse1123_72000" to="nt4_np4" type="griddist1"/>
    <trip arrivalPos="62.73" depart="72497" departPos="47.96" from="np10_nt15" id="pse1124_72000" to="nt1_np1" type="griddist1"/>
    <trip arrivalPos="50.84" depart="72510" departPos="74.16" from="np10_nt15" id="pse1125_72000" to="nt2_np2" type="griddist1"/>
    <trip arrivalPos="37.88" depart="72511" departPos="41.57" from="np12_nt13" id="pse1126_72000" to="nt4_np4" type="griddist1"/>
    <trip arrivalPos="50.95" depart="72515" departPos="143.72" from="nt4_nt3" id="pse1127_72000" to="nt1_np1" type="griddist1"/>
    <trip arrivalPos="63.79" depart="72521" departPos="176.34" from="nt11_nt7" id="pse1128_72000" to="nt2_np2" type="griddist1"/>
    <trip arrivalPos="55.97" depart="72522" departPos="19.70" from="nt10_nt6" id="pse1129_72000" to="nt4_np4" type="griddist1"/>
    <trip arrivalPos="38.04" depart="72522" departPos="59.13" from="np11_nt14" id="pse1130_72000" to="nt2_np2" type="griddist1"/>
    <trip arrivalPos="27.19" depart="72525" departPos="9.51" from="np10_nt15" id="pse1131_72000" to="nt2_np2" type="griddist1"/>
    <trip arrivalPos="23.39" depart="72535" departPos="33.62" from="np11_nt14" id="pse1132_72000" to="nt1_np1" type="griddist1"/>
    <trip arrivalPos="39.74" depart="72536" departPos="39.70" from="nt11_nt7" id="pse1133_72000" to="nt2_np2" type="griddist1"/>
    <trip arrivalPos="19.49" depart="72541" departPos="122.29" from="nt16_nt15" id="pse1134_72000" to="nt4_np4" type="griddist1"/>
    <trip arrivalPos="54.74" depart="72542" departPos="178.95" from="nt13_nt9" id="pse1135_72000" to="nt1_np1" type="griddist1"/>
    <trip arrivalPos="28.65" depart="72546" departPos="53.43" from="np9_nt16" id="pse1136_72000" to="nt1_np1" type="griddist1"/>
    <trip arrivalPos="8.15" depart="72550" departPos="27.53" from="nt6_nt7" id="pse1137_72000" to="nt2_np2" type="griddist1"/>
    <trip arrivalPos="24.61" depart="72555" departPos="127.62" from="nt12_nt8" id="pse1138_72000" to="nt3_np3" type="griddist1"/>
    <trip arrivalPos="27.79" depart="72566" departPos="90.59" from="nt11_nt7" id="pse1139_72000" to="nt2_np2" type="griddist1"/>
    <trip arrivalPos="56.70" depart="72566" departPos="121.51" from="nt3_nt4" id="pse1140_72000" to="nt1_np1" type="griddist1"/>
    <trip arrivalPos="57.37" depart="72571" departPos="79.82" from="nt10_nt9" id="pse1141_72000" to="nt4_np4" type="griddist1"/>
    <trip arrivalPos="47.13" depart="72571" departPos="29.90" from="np8_nt16" id="pse1142_72000" to="nt4_np4" type="griddist1"/>
    <trip arrivalPos="61.60" depart="72574" departPos="17.28" from="np14_nt9" id="pse1143_72000" to="nt2_np2" type="griddist1"/>
    <trip arrivalPos="5.51" depart="72585" departPos="16.35" from="nt15_nt11" id="pse1144_72000" to="nt2_np2" type="griddist1"/>
    <trip arrivalPos="8.41" depart="72603" departPos="27.95" from="np9_nt16" id="pse1145_72000" to="nt3_np3" type="griddist1"/>
    <trip arrivalPos="43.28" depart="72604" departPos="42.13" from="np10_nt15" id="pse1146_72000" to="nt4_np4" type="griddist1"/>
    <trip arrivalPos="27.32" depart="72606" departPos="70.58" from="np8_nt16" id="pse1147_72000" to="nt4_np4" type="griddist1"/>
    <trip arrivalPos="20.18" depart="72610" departPos="51.54" from="nt7_nt3" id="pse1148_72000" to="nt1_np1" type="griddist1"/>
    <trip arrivalPos="31.15" depart="72617" departPos="11.60" from="np11_nt14" id="pse1149_72000" to="nt3_np3" type="griddist1"/>
    <trip arrivalPos="7.42" depart="72625" departPos="103.24" from="nt5_nt6" id="pse1150_72000" to="nt2_np2" type="griddist1"/>
    <trip arrivalPos="36.24" depart="72626" departPos="32.18" from="np12_nt13" id="pse1151_72000" to="nt1_np1" type="griddist1"/>
    <trip arrivalPos="35.97" depart="72626" departPos="125.28" from="nt2_nt3" id="pse1152_72000" to="nt3_np3" type="griddist1"/>
    <trip arrivalPos="1.87" depart="72633" departPos="128.71" from="nt12_nt11" id="pse1153_72000" to="nt3_np3" type="griddist1"/>
    <trip arrivalPos="22.68" depart="72634" departPos="69.12" from="np12_nt13" id="pse1154_72000" to="nt4_np4" type="griddist1"/>
    <trip arrivalPos="4.50" depart="72636" departPos="49.30" from="np11_nt14" id="pse1155_72000" to="nt1_np1" type="griddist1"/>
    <trip arrivalPos="34.27" depart="72636" departPos="16.44" from="nt1_nt5" id="pse1156_72000" to="nt4_np4" type="griddist1"/>
    <trip arrivalPos="20.13" depart="72644" departPos="10.17" from="np4_nt4" id="pse1157_72000" to="nt2_np2" type="griddist1"/>
    <trip arrivalPos="57.06" depart="72646" departPos="40.42" from="np15_nt5" id="pse1158_72000" to="nt4_np4" type="griddist1"/>
    <trip arrivalPos="5.27" depart="72647" departPos="3.73" from="np11_nt14" id="pse1159_72000" to="nt4_np4" type="griddist1"/>
    <trip arrivalPos="26.76" depart="72651" departPos="45.53" from="np9_nt16" id="pse1160_72000" to="nt2_np2" type="griddist1"/>
    <trip arrivalPos="7.16" depart="72652" departPos="25.89" from="np12_nt13" id="pse1161_72000" to="nt3_np3" type="griddist1"/>
    <trip arrivalPos="19.92" depart="72653" departPos="97.80" from="nt14_nt15" id="pse1162_72000" to="nt3_np3" type="griddist1"/>
    <trip arrivalPos="13.21" depart="72655" departPos="4.11" from="np12_nt13" id="pse1163_72000" to="nt4_np4" type="griddist1"/>
    <trip arrivalPos="18.70" depart="72661" departPos="136.94" from="nt8_nt12" id="pse1164_72000" to="nt4_np4" type="griddist1"/>
    <trip arrivalPos="8.35" depart="72661" departPos="32.30" from="np11_nt14" id="pse1165_72000" to="nt2_np2" type="griddist1"/>
    <trip arrivalPos="43.16" depart="72665" departPos="100.12" from="nt10_nt14" id="pse1166_72000" to="nt1_np1" type="griddist1"/>
    <trip arrivalPos="28.18" depart="72666" departPos="47.94" from="np2_nt2" id="pse1167_72000" to="nt2_np2" type="griddist1"/>
    <trip arrivalPos="27.73" depart="72669" departPos="23.48" from="np9_nt16" id="pse1168_72000" to="nt1_np1" type="griddist1"/>
    <trip arrivalPos="26.17" depart="72674" departPos="21.71" from="np7_nt12" id="pse1169_72000" to="nt3_np3" type="griddist1"/>
    <trip arrivalPos="29.72" depart="72676" departPos="175.88" from="nt8_nt7" id="pse1170_72000" to="nt1_np1" type="griddist1"/>
    <trip arrivalPos="6.84" depart="72676" departPos="78.26" from="nt15_nt11" id="pse1171_72000" to="nt2_np2" type="griddist1"/>
    <trip arrivalPos="56.24" depart="72681" departPos="5.90" from="np9_nt16" id="pse1172_72000" to="nt2_np2" type="griddist1"/>
    <trip arrivalPos="4.93" depart="72695" departPos="139.62" from="nt1_nt5" id="pse1173_72000" to="nt1_np1" type="griddist1"/>
    <trip arrivalPos="50.14" depart="72700" departPos="35.99" from="nt13_nt14" id="pse1174_72000" to="nt3_np3" type="griddist1"/>
    <trip arrivalPos="9.54" depart="72712" departPos="41.70" from="np2_nt2" id="pse1175_72000" to="nt4_np4" type="griddist1"/>
    <trip arrivalPos="9.88" depart="72720" departPos="13.01" from="np11_nt14" id="pse1176_72000" to="nt2_np2" type="griddist1"/>
    <trip arrivalPos="40.57" depart="72725" departPos="176.56" from="nt2_nt1" id="pse1177_72000" to="nt1_np1" type="griddist1"/>
    <trip arrivalPos="44.00" depart="72731" departPos="43.46" from="np9_nt16" id="pse1178_72000" to="nt3_np3" type="griddist1"/>
    <trip arrivalPos="20.88" depart="72731" departPos="183.10" from="nt6_nt5" id="pse1179_72000" to="nt3_np3" type="griddist1"/>
    <trip arrivalPos="30.29" depart="72734" departPos="81.62" from="nt9_nt10" id="pse1180_72000" to="nt2_np2" type="griddist1"/>
    <trip arrivalPos="22.74" depart="72744" departPos="109.77" from="nt13_nt14" id="pse1181_72000" to="nt4_np4" type="griddist1"/>
    <trip arrivalPos="23.82" depart="72751" departPos="2.82" from="np10_nt15" id="pse1182_72000" to="nt2_np2" type="griddist1"/>
    <trip arrivalPos="5.83" depart="72761" departPos="73.30" from="np12_nt13" id="pse1183_72000" to="nt3_np3" type="griddist1"/>
    <trip arrivalPos="61.64" depart="72777" departPos="104.00" from="nt11_nt7" id="pse1184_72000" to="nt2_np2" type="griddist1"/>
    <trip arrivalPos="36.93" depart="72778" departPos="168.72" from="nt1_nt2" id="pse1185_72000" to="nt1_np1" type="griddist1"/>
    <trip arrivalPos="61.87" depart="72779" departPos="37.60" from="np11_nt14" id="pse1186_72000" to="nt3_np3" type="griddist1"/>
    <trip arrivalPos="63.46" depart="72779" departPos="62.80" from="np9_nt16" id="pse1187_72000" to="nt4_np4" type="griddist1"/>
    <trip arrivalPos="45.71" depart="72784" departPos="2.94" from="np10_nt15" id="pse1188_72000" to="nt3_np3" type="griddist1"/>
    <trip arrivalPos="23.51" depart="72785" departPos="109.28" from="nt9_nt5" id="pse1189_72000" to="nt3_np3" type="griddist1"/>
    <trip arrivalPos="43.86" depart="72787" departPos="138.78" from="nt7_nt3" id="pse1190_72000" to="nt2_np2" type="griddist1"/>
    <trip arrivalPos="21.30" depart="72791" departPos="25.10" from="np10_nt15" id="pse1191_72000" to="nt3_np3" type="griddist1"/>
    <trip arrivalPos="55.01" depart="72796" departPos="46.77" from="nt10_nt9" id="pse1192_72000" to="nt2_np2" type="griddist1"/>
    <trip arrivalPos="5.27" depart="72807" departPos="27.91" from="nt8_nt7" id="pse1193_72000" to="nt3_np3" type="griddist1"/>
    <trip arrivalPos="42.38" depart="72814" departPos="57.58" from="nt14_nt13" id="pse1194_72000" to="nt4_np4" type="griddist1"/>
    <trip arrivalPos="5.47" depart="72814" departPos="131.56" from="nt14_nt13" id="pse1195_72000" to="nt1_np1" type="griddist1"/>
    <trip arrivalPos="8.26" depart="72815" departPos="60.97" from="nt10_nt9" id="pse1196_72000" to="nt3_np3" type="griddist1"/>
    <trip arrivalPos="58.94" depart="72817" departPos="185.07" from="nt15_nt16" id="pse1197_72000" to="nt4_np4" type="griddist1"/>
    <trip arrivalPos="1.18" depart="72823" departPos="38.14" from="np10_nt15" id="pse1198_72000" to="nt3_np3" type="griddist1"/>
    <trip arrivalPos="49.49" depart="72833" departPos="23.17" from="np13_nt13" id="pse1199_72000" to="nt4_np4" type="griddist1"/>
    <trip arrivalPos="19.11" depart="72836" departPos="11.62" from="np11_nt14" id="pse1200_72000" to="nt4_np4" type="griddist1"/>
    <trip arrivalPos="47.72" depart="72847" departPos="100.18" from="nt3_nt2" id="pse1201_72000" to="nt3_np3" type="griddist1"/>
    <trip arrivalPos="39.92" depart="72858" departPos="162.66" from="nt10_nt11" id="pse1202_72000" to="nt3_np3" type="griddist1"/>
    <trip arrivalPos="44.76" depart="72860" departPos="32.41" from="nt11_nt7" id="pse1203_72000" to="nt1_np1" type="griddist1"/>
    <trip arrivalPos="2.82" depart="72860" departPos="129.24" from="nt12_nt8" id="pse1204_72000" to="nt4_np4" type="griddist1"/>
    <trip arrivalPos="39.44" depart="72862" departPos="62.64" from="np3_nt3" id="pse1205_72000" to="nt3_np3" type="griddist1"/>
    <trip arrivalPos="15.45" depart="72864" departPos="43.43" from="nt2_nt1" id="pse1206_72000" to="nt4_np4" type="griddist1"/>
    <trip arrivalPos="12.53" depart="72866" departPos="167.78" from="nt8_nt7" id="pse1207_72000" to="nt4_np4" type="griddist1"/>
    <trip arrivalPos="49.71" depart="72867" departPos="81.77" from="nt14_nt15" id="pse1208_72000" to="nt3_np3" type="griddist1"/>
    <trip arrivalPos="10.47" depart="72870" departPos="75.02" from="nt2_nt6" id="pse1209_72000" to="nt3_np3" type="griddist1"/>
    <trip arrivalPos="3.37" depart="72873" departPos="65.48" from="np11_nt14" id="pse1210_72000" to="nt3_np3" type="griddist1"/>
    <trip arrivalPos="45.96" depart="72875" departPos="70.07" from="np9_nt16" id="pse1211_72000" to="nt2_np2" type="griddist1"/>
    <trip arrivalPos="10.36" depart="72875" departPos="6.29" from="np9_nt16" id="pse1212_72000" to="nt1_np1" type="griddist1"/>
    <trip arrivalPos="5.92" depart="72876" departPos="62.33" from="np9_nt16" id="pse1213_72000" to="nt3_np3" type="griddist1"/>
    <trip arrivalPos="60.11" depart="72877" departPos="158.53" from="nt7_nt3" id="pse1214_72000" to="nt4_np4" type="griddist1"/>
    <trip arrivalPos="24.95" depart="72881" departPos="28.05" from="np8_nt16" id="pse1215_72000" to="nt2_np2" type="griddist1"/>
    <trip arrivalPos="6.40" depart="72891" departPos="23.90" from="np10_nt15" id="pse1216_72000" to="nt1_np1" type="griddist1"/>
    <trip arrivalPos="2.47" depart="72895" departPos="26.17" from="nt16_nt12" id="pse1217_72000" to="nt2_np2" type="griddist1"/>
    <trip arrivalPos="49.02" depart="72896" departPos="148.93" from="nt7_nt3" id="pse1218_72000" to="nt2_np2" type="griddist1"/>
    <trip arrivalPos="1.23" depart="72898" departPos="67.94" from="np9_nt16" id="pse1219_72000" to="nt3_np3" type="griddist1"/>
    <trip arrivalPos="39.33" depart="72898" departPos="70.52" from="np12_nt13" id="pse1220_72000" to="nt1_np1" type="griddist1"/>
    <trip arrivalPos="7.87" depart="72899" departPos="17.82" from="np9_nt16" id="pse1221_72000" to="nt4_np4" type="griddist1"/>
    <trip arrivalPos="4.06" depart="72902" departPos="46.71" from="np12_nt13" id="pse1222_72000" to="nt3_np3" type="griddist1"/>
    <trip arrivalPos="40.82" depart="72902" departPos="96.06" from="nt5_nt1" id="pse1223_72000" to="nt2_np2" type="griddist1"/>
    <trip arrivalPos="0.10" depart="72903" departPos="54.06" from="nt11_nt12" id="pse1224_72000" to="nt3_np3" type="griddist1"/>
    <trip arrivalPos="43.17" depart="72911" departPos="12.10" from="np2_nt2" id="pse1225_72000" to="nt3_np3" type="griddist1"/>
    <trip arrivalPos="35.15" depart="72913" departPos="176.95" from="nt10_nt11" id="pse1226_72000" to="nt2_np2" type="griddist1"/>
    <trip arrivalPos="56.42" depart="72914" departPos="3.77" from="nt3_nt2" id="pse1227_72000" to="nt3_np3" type="griddist1"/>
    <trip arrivalPos="48.28" depart="72920" departPos="28.00" from="np10_nt15" id="pse1228_72000" to="nt2_np2" type="griddist1"/>
    <trip arrivalPos="42.45" depart="72920" departPos="15.58" from="np2_nt2" id="pse1229_72000" to="nt1_np1" type="griddist1"/>
    <trip arrivalPos="8.62" depart="72932" departPos="56.75" from="np11_nt14" id="pse1230_72000" to="nt3_np3" type="griddist1"/>
    <trip arrivalPos="53.64" depart="72933" departPos="41.52" from="np2_nt2" id="pse1231_72000" to="nt2_np2" type="griddist1"/>