<routes>
    <trip arrivalPos="87.22" depart="46805" departPos="97.84" from="nt13_nt9" id="random0_46800" to="nt13_nt9" type="griddistrandom"/>
    <trip arrivalPos="60.42" depart="46827" departPos="34.46" from="nt8_nt4" id="random1_46800" to="nt4_np4" type="griddistrandom"/>
    <trip arrivalPos="29.20" depart="46828" departPos="55.75" from="np4_nt4" id="random2_46800" to="nt8_np6" type="griddistrandom"/>
    <trip arrivalPos="158.62" depart="46836" departPos="3.82" from="np9_nt16" id="random3_46800" to="nt9_nt5" type="griddistrandom"/>
    <trip arrivalPos="111.33" depart="46837" departPos="124.71" from="nt6_nt10" id="random4_46800" to="nt9_nt10" type="griddistrandom"/>
    <trip arrivalPos="58.56" depart="46842" departPos="6.93" from="np2_nt2" id="random5_46800" to="nt8_np6" type="griddistrandom"/>
    <trip arrivalPos="92.73" depart="46846" departPos="22.18" from="np3_nt3" id="random6_46800" to="nt6_nt2" type="griddistrandom"/>
    <trip arrivalPos="46.04" depart="46848" departPos="61.94" from="nt11_nt15" id="random7_46800" to="nt13_np12" type="griddistrandom"/>
    <trip arrivalPos="146.09" depart="46850" departPos="172.39" from="nt4_nt3" id="random8_46800" to="nt2_nt1" type="griddistrandom"/>
    <trip arrivalPos="45.29" depart="46856" departPos="40.79" from="nt5_nt9" id="random9_46800" to="nt8_nt12" type="griddistrandom"/>
    <trip arrivalPos="73.54" depart="46875" departPos="40.94" from="np11_nt14" id="random10_46800" to="nt12_nt16" type="griddistrandom"/>
    <trip arrivalPos="116.08" depart="46883" departPos="176.74" from="nt10_nt6" id="random11_46800" to="nt10_nt9" type="griddistrandom"/>
    <trip arrivalPos="145.58" depart="46887" departPos="52.21" from="nt9_nt5" id="random12_46800" to="nt3_nt7" type="griddistrandom"/>
    <trip arrivalPos="60.08" depart="46889" departPos="46.72" from="np5_nt4" id="random13_46800" to="nt7_nt8" type="griddistrandom"/>
    <trip arrivalPos="66.41" depart="46896" departPos="139.25" from="nt5_nt1" id="random14_46800" to="nt16_nt15" type="griddistrandom"/>
    <trip arrivalPos="129.04" depart="46896" departPos="85.19" from="nt14_nt10" id="random15_46800" to="nt9_nt13" type="griddistrandom"/>
    <trip arrivalPos="57.90" depart="46905" departPos="2.27" from="np14_nt9" id="random16_46800" to="nt1_nt2" type="griddistrandom"/>
    <trip arrivalPos="116.16" depart="46907" departPos="97.50" from="nt5_nt1" id="random17_46800" to="nt10_nt9" type="griddistrandom"/>
    <trip arrivalPos="47.36" depart="46910" departPos="20.55" from="nt7_nt6" id="random18_46800" to="nt16_np8" type="griddistrandom"/>
    <trip arrivalPos="16.75" depart="46927" departPos="124.92" from="nt6_nt10" id="random19_46800" to="nt16_nt12" type="griddistrandom"/>
    <trip arrivalPos="56.46" depart="46928" departPos="6.03" from="np1_nt1" id="random20_46800" to="nt16_np8" type="griddistrandom"/>
    <trip arrivalPos="86.30" depart="46931" departPos="126.33" from="nt13_nt9" id="random21_46800" to="nt1_nt2" type="griddistrandom"/>
    <trip arrivalPos="109.54" depart="46935" departPos="78.34" from="nt6_nt2" id="random22_46800" to="nt10_nt9" type="griddistrandom"/>
    <trip arrivalPos="126.58" depart="46936" departPos="26.49" from="nt1_nt2" id="random23_46800" to="nt11_nt7" type="griddistrandom"/>
    <trip arrivalPos="160.25" depart="46941" departPos="160.67" from="nt8_nt7" id="random24_46800" to="nt13_nt14" type="griddistrandom"/>
    <trip arrivalPos="18.75" depart="46950" departPos="115.26" from="nt14_nt13" id="random25_46800" to="nt12_np7" type="griddistrandom"/>
    <trip arrivalPos="82.84" depart="46950" departPos="117.51" from="nt8_nt4" id="random26_46800" to="nt2_nt6" type="griddistrandom"/>
    <trip arrivalPos="151.78" depart="46957" departPos="40.35" from="np5_nt4" id="random27_46800" to="nt14_nt13" type="griddistrandom"/>
    <trip arrivalPos="48.80" depart="46959" departPos="3.70" from="np16_nt1" id="random28_46800" to="nt4_nt3" type="griddistrandom"/>
    <trip arrivalPos="44.31" depart="46964" departPos="103.06" from="nt11_nt10" id="random29_46800" to="nt10_nt6" type="griddistrandom"/>
    <trip arrivalPos="136.14" depart="46966" departPos="17.95" from="np15_nt5" id="random30_46800" to="nt2_nt1" type="griddistrandom"/>
    <trip arrivalPos="60.61" depart="46968" departPos="92.94" from="nt4_nt8" id="random31_46800" to="nt10_nt6" type="griddistrandom"/>
    <trip arrivalPos="129.44" depart="46968" departPos="136.82" from="nt14_nt15" id="random32_46800" to="nt9_nt13" type="griddistrandom"/>
    <trip arrivalPos="32.88" depart="46982" departPos="21.93" from="np8_nt16" id="random33_46800" to="nt8_nt4" type="griddistrandom"/>
    <trip arrivalPos="59.27" depart="46987" departPos="109.68" from="nt6_nt2" id="random34_46800" to="nt5_nt1" type="griddistrandom"/>
    <trip arrivalPos="46.79" depart="46994" departPos="113.94" from="nt7_nt6" id="random35_46800" to="nt3_np3" type="griddistrandom"/>
    <trip arrivalPos="54.13" depart="46999" departPos="37.48" from="nt6_nt5" id="random36_46800" to="nt12_nt11" type="griddistrandom"/>
    <trip arrivalPos="13.60" depart="47003" departPos="131.46" from="nt6_nt7" id="random37_46800" to="nt6_nt5" type="griddistrandom"/>
    <trip arrivalPos="36.48" depart="47019" departPos="142.43" from="nt5_nt6" id="random38_46800" to="nt7_nt11" type="griddistrandom"/>
    <trip arrivalPos="53.45" depart="47019" departPos="106.97" from="nt7_nt3" id="random39_46800" to="nt1_np1" type="griddistrandom"/>
    <trip arrivalPos="81.00" depart="47021" departPos="141.01" from="nt2_nt1" id="random40_46800" to="nt7_nt6" type="griddistrandom"/>
    <trip arrivalPos="42.60" depart="47025" departPos="6.16" from="nt6_nt5" id="random41_46800" to="nt13_np13" type="griddistrandom"/>
    <trip arrivalPos="65.96" depart="47027" departPos="18.30" from="np3_nt3" id="random42_46800" to="nt12_np7" type="griddistrandom"/>
    <trip arrivalPos="116.03" depart="47031" departPos="124.41" from="nt11_nt15" id="random43_46800" to="nt1_nt5" type="griddistrandom"/>
    <trip arrivalPos="34.20" depart="47035" departPos="89.53" from="nt11_nt10" id="random44_46800" to="nt1_np1" type="griddistrandom"/>
    <trip arrivalPos="95.21" depart="47039" departPos="16.21" from="nt7_nt8" id="random45_46800" to="nt9_nt10" type="griddistrandom"/>
    <trip arrivalPos="51.07" depart="47047" departPos="62.91" from="np6_nt8" id="random46_46800" to="nt13_np13" type="griddistrandom"/>
    <trip arrivalPos="48.14" depart="47049" departPos="159.85" from="nt9_nt5" id="random47_46800" to="nt12_np7" type="griddistrandom"/>
    <trip arrivalPos="13.92" depart="47053" departPos="137.11" from="nt12_nt16" id="random48_46800" to="nt13_np12" type="griddistrandom"/>
    <trip arrivalPos="91.16" depart="47054" departPos="4.85" from="np3_nt3" id="random49_46800" to="nt10_nt14" type="griddistrandom"/>
    <trip arrivalPos="55.64" depart="47056" departPos="8.14" from="nt9_nt5" id="random50_46800" to="nt4_np4" type="griddistrandom"/>
    <trip arrivalPos="13.66" depart="47065" departPos="24.53" from="nt5_nt9" id="random51_46800" to="nt11_nt7" type="griddistrandom"/>
    <trip arrivalPos="148.77" depart="47075" departPos="123.62" from="nt16_nt12" id="random52_46800" to="nt11_nt7" type="griddistrandom"/>
    <trip arrivalPos="68.52" depart="47076" departPos="105.73" from="nt9_nt5" id="random53_46800" to="nt12_nt16" type="griddistrandom"/>
    <trip arrivalPos="37.83" depart="47082" departPos="40.43" from="nt7_nt6" id="random54_46800" to="nt16_nt12" type="griddistrandom"/>
    <trip arrivalPos="57.49" depart="47090" departPos="133.29" from="nt9_nt10" id="random55_46800" to="nt11_nt7" type="griddistrandom"/>
    <trip arrivalPos="120.58" depart="47093" departPos="143.30" from="nt7_nt6" id="random56_46800" to="nt5_nt9" type="griddistrandom"/>
    <trip arrivalPos="69.79" depart="47094" departPos="182.14" from="nt11_nt10" id="random57_46800" to="nt16_nt12" type="griddistrandom"/>
    <trip arrivalPos="51.21" depart="47105" departPos="49.38" from="nt6_nt10" id="random58_46800" to="nt1_np1" type="griddistrandom"/>
    <trip arrivalPos="43.64" depart="47117" departPos="35.84" from="nt12_nt16" id="random59_46800" to="nt16_np8" type="griddistrandom"/>
    <trip arrivalPos="163.82" depart="47117" departPos="75.23" from="nt14_nt13" id="random60_46800" to="nt15_nt14" type="griddistrandom"/>
    <trip arrivalPos="25.16" depart="47119" departPos="76.43" from="nt15_nt11" id="random61_46800" to="nt14_nt13" type="griddistrandom"/>
    <trip arrivalPos="118.13" depart="47122" departPos="53.79" from="nt4_nt3" id="random62_46800" to="nt10_nt6" type="griddistrandom"/>
    <trip arrivalPos="3.98" depart="47129" departPos="11.68" from="nt13_nt14" id="random63_46800" to="nt8_nt4" type="griddistrandom"/>
    <trip arrivalPos="84.52" depart="47132" departPos="139.06" from="nt9_nt13" id="random64_46800" to="nt9_nt13" type="griddistrandom"/>
    <trip arrivalPos="6.99" depart="47132" departPos="158.75" from="nt14_nt13" id="random65_46800" to="nt8_np6" type="griddistrandom"/>
    <trip arrivalPos="81.95" depart="47134" departPos="23.66" from="nt10_nt6" id="random66_46800" to="nt4_nt3" type="griddistrandom"/>
    <trip arrivalPos="148.18" depart="47134" departPos="36.80" from="np13_nt13" id="random67_46800" to="nt5_nt1" type="griddistrandom"/>
    <trip arrivalPos="141.80" depart="47136" departPos="15.88" from="nt6_nt5" id="random68_46800" to="nt6_nt2" type="griddistrandom"/>
    <trip arrivalPos="46.66" depart="47139" departPos="143.53" from="nt8_nt4" id="random69_46800" to="nt11_nt7" type="griddistrandom"/>
    <trip arrivalPos="1.69" depart="47140" departPos="149.80" from="nt2_nt3" id="random70_46800" to="nt1_nt5" type="griddistrandom"/>
    <trip arrivalPos="29.85" depart="47150" departPos="151.76" from="nt10_nt9" id="random71_46800" to="nt9_np14" type="griddistrandom"/>
    <trip arrivalPos="44.91" depart="47155" departPos="172.24" from="nt12_nt8" id="random72_46800" to="nt5_nt1" type="griddistrandom"/>
    <trip arrivalPos="131.58" depart="47163" departPos="8.53" from="np15_nt5" id="random73_46800" to="nt2_nt6" type="griddistrandom"/>
    <trip arrivalPos="120.61" depart="47164" departPos="8.12" from="np3_nt3" id="random74_46800" to="nt4_nt8" type="griddistrandom"/>
    <trip arrivalPos="130.19" depart="47165" departPos="8.32" from="nt9_nt10" id="random75_46800" to="nt11_nt15" type="griddistrandom"/>
    <trip arrivalPos="54.37" depart="47168" departPos="109.02" from="nt6_nt2" id="random76_46800" to="nt4_np5" type="griddistrandom"/>
    <trip arrivalPos="154.87" depart="47168" departPos="135.99" from="nt1_nt5" id="random77_46800" to="nt4_nt3" type="griddistrandom"/>
    <trip arrivalPos="167.89" depart="47188" departPos="128.91" from="nt3_nt4" id="random78_46800" to="nt10_nt14" type="griddistrandom"/>
    <trip arrivalPos="34.50" depart="47197" departPos="119.43" from="nt11_nt10" id="random79_46800" to="nt3_np3" type="griddistrandom"/>
    <trip arrivalPos="58.70" depart="47202" departPos="87.83" from="nt10_nt11" id="random80_46800" to="nt15_nt14" type="griddistrandom"/>
    <trip arrivalPos="57.55" depart="47204" departPos="99.37" from="nt13_nt14" id="random81_46800" to="nt7_nt3" type="griddistrandom"/>
    <trip arrivalPos="20.61" depart="47213" departPos="19.09" from="nt3_nt4" id="random82_46800" to="nt9_nt5" type="griddistrandom"/>
    <trip arrivalPos="30.28" depart="47215" departPos="168.67" from="nt9_nt13" id="random83_46800" to="nt14_nt15" type="griddistrandom"/>
    <trip arrivalPos="140.50" depart="47215" departPos="63.91" from="nt5_nt9" id="random84_46800" to="nt12_nt11" type="griddistrandom"/>
    <trip arrivalPos="51.66" depart="47217" departPos="10.44" from="np8_nt16" id="random85_46800" to="nt1_np16" type="griddistrandom"/>
    <trip arrivalPos="53.15" depart="47220" departPos="144.14" from="nt11_nt15" id="random86_46800" to="nt13_np12" type="griddistrandom"/>
    <trip arrivalPos="106.82" depart="47235" departPos="19.40" from="nt16_nt15" id="random87_46800" to="nt6_nt2" type="griddistrandom"/>
    <trip arrivalPos="70.56" depart="47236" departPos="171.54" from="nt11_nt10" id="random88_46800" to="nt4_np5" type="griddistrandom"/>
    <trip arrivalPos="157.76" depart="47239" departPos="83.38" from="nt6_nt2" id="random89_46800" to="nt8_nt4" type="griddistrandom"/>
    <trip arrivalPos="153.97" depart="47241" departPos="152.36" from="nt15_nt11" id="random90_46800" to="nt8_nt7" type="griddistrandom"/>
    <trip arrivalPos="92.44" depart="47246" departPos="14.13" from="nt1_nt5" id="random91_46800" to="nt10_nt6" type="griddistrandom"/>
    <trip arrivalPos="13.24" depart="47247" departPos="48.35" from="nt5_nt1" id="random92_46800" to="nt2_np2" type="griddistrandom"/>
    <trip arrivalPos="108.82" depart="47248" departPos="29.72" from="np10_nt15" id="random93_46800" to="nt3_nt2" type="griddistrandom"/>
    <trip arrivalPos="9.47" depart="47249" departPos="11.50" from="np15_nt5" id="random94_46800" to="nt1_np16" type="griddistrandom"/>
    <trip arrivalPos="48.32" depart="47250" departPos="4.68" from="nt10_nt9" id="random95_46800" to="nt11_nt12" type="griddistrandom"/>
    <trip arrivalPos="49.49" depart="47253" departPos="53.50" from="nt2_nt3" id="random96_46800" to="nt6_nt2" type="griddistrandom"/>
    <trip arrivalPos="107.43" depart="47255" departPos="95.74" from="nt13_nt14" id="random97_46800" to="nt3_nt7" type="griddistrandom"/>
    <trip arrivalPos="15.72" depart="47256" departPos="41.03" from="np13_nt13" id="random98_46800" to="nt4_np5" type="griddistrandom"/>
    <trip arrivalPos="4.87" depart="47257" departPos="93.72" from="nt3_nt2" id="random99_46800" to="nt7_nt6" type="griddistrandom"/>
    <trip arrivalPos="58.89" depart="47258" departPos="23.75" from="np5_nt4" id="random100_46800" to="nt11_nt12" type="griddistrandom"/>
    <trip arrivalPos="4.91" depart="47261" departPos="70.70" from="nt2_nt1" id="random101_46800" to="nt3_nt2" type="griddistrandom"/>
    <trip arrivalPos="106.85" depart="47265" departPos="55.24" from="np7_nt12" id="random102_46800" to="nt6_nt2" type="griddistrandom"/>
    <trip arrivalPos="39.17" depart="47272" departPos="25.02" from="nt12_nt11" id="random103_46800" to="nt15_nt14" type="griddistrandom"/>
    <trip arrivalPos="24.89" depart="47272" departPos="51.90" from="np1_nt1" id="random104_46800" to="nt5_np15" type="griddistrandom"/>
    <trip arrivalPos="59.40" depart="47273" departPos="141.12" from="nt11_nt15" id="random105_46800" to="nt16_np8" type="griddistrandom"/>
    <trip arrivalPos="18.03" depart="47273" departPos="41.35" from="np15_nt5" id="random106_46800" to="nt16_nt15" type="griddistrandom"/>
    <trip arrivalPos="88.48" depart="47279" departPos="46.84" from="nt11_nt12" id="random107_46800" to="nt11_nt7" type="griddistrandom"/>
    <trip arrivalPos="112.52" depart="47286" departPos="19.16" from="np9_nt16" id="random108_46800" to="nt7_nt6" type="griddistrandom"/>
    <trip arrivalPos="16.30" depart="47298" departPos="58.40" from="np16_nt1" id="random109_46800" to="nt11_nt15" type="griddistrandom"/>
    <trip arrivalPos="25.90" depart="47313" departPos="95.99" from="nt16_nt12" id="random110_46800" to="nt16_nt15" type="griddistrandom"/>
    <trip arrivalPos="81.00" depart="47315" departPos="88.15" from="nt10_nt9" id="random111_46800" to="nt9_nt13" type="griddistrandom"/>
    <trip arrivalPos="117.43" depart="47317" departPos="70.54" from="nt13_nt9" id="random112_46800" to="nt10_nt14" type="griddistrandom"/>
    <trip arrivalPos="21.55" depart="47318" departPos="173.42" from="nt6_nt10" id="random113_46800" to="nt7_nt3" type="griddistrandom"/>
    <trip arrivalPos="166.01" depart="47327" departPos="11.33" from="np5_nt4" id="random114_46800" to="nt11_nt15" type="griddistrandom"/>
    <trip arrivalPos="94.04" depart="47330" departPos="37.23" from="np11_nt14" id="random115_46800" to="nt5_nt9" type="griddistrandom"/>
    <trip arrivalPos="14.69" depart="47336" departPos="34.16" from="np11_nt14" id="random116_46800" to="nt3_np3" type="griddistrandom"/>
    <trip arrivalPos="39.81" depart="47336" departPos="0.66" from="np11_nt14" id="random117_46800" to="nt15_np10" type="griddistrandom"/>
    <trip arrivalPos="43.72" depart="47340" departPos="121.95" from="nt5_nt6" id="random118_46800" to="nt3_nt7" type="griddistrandom"/>
    <trip arrivalPos="15.84" depart="47341" departPos="102.24" from="nt12_nt8" id="random119_46800" to="nt4_np5" type="griddistrandom"/>
    <trip arrivalPos="124.61" depart="47344" departPos="49.51" from="np8_nt16" id="random120_46800" to="nt10_nt11" type="griddistrandom"/>
    <trip arrivalPos="1.87" depart="47351" departPos="34.16" from="nt6_nt7" id="random121_46800" to="nt8_nt12" type="griddistrandom"/>
    <trip arrivalPos="167.97" depart="47353" departPos="142.86" from="nt10_nt9" id="random122_46800" to="nt8_nt7" type="griddistrandom"/>
    <trip arrivalPos="60.01" depart="47364" departPos="7.08" from="nt6_nt5" id="random123_46800" to="nt16_np9" type="griddistrandom"/>
    <trip arrivalPos="40.25" depart="47371" departPos="172.27" from="nt5_nt6" id="random124_46800" to="nt16_np8" type="griddistrandom"/>
    <trip arrivalPos="149.13" depart="47375" departPos="32.54" from="nt11_nt15" id="random125_46800" to="nt13_nt9" type="griddistrandom"/>
    <trip arrivalPos="31.71" depart="47375" departPos="167.83" from="nt8_nt4" id="random126_46800" to="nt13_nt9" type="griddistrandom"/>
    <trip arrivalPos="101.61" depart="47382" departPos="35.58" from="nt9_nt13" id="random127_46800" to="nt4_nt3" type="griddistrandom"/>
    <trip arrivalPos="140.17" depart="47396" departPos="22.19" from="np2_nt2" id="random128_46800" to="nt13_nt14" type="griddistrandom"/>
    <trip arrivalPos="121.45" depart="47397" departPos="16.02" from="nt7_nt8" id="random129_46800" to="nt3_nt4" type="griddistrandom"/>
    <trip arrivalPos="59.60" depart="47401" departPos="0.41" from="nt7_nt3" id="random130_46800" to="nt2_nt3" type="griddistrandom"/>
    <trip arrivalPos="33.93" depart="47404" departPos="33.14" from="np12_nt13" id="random131_46800" to="nt3_np3" type="griddistrandom"/>
    <trip arrivalPos="40.25" depart="47410" departPos="64.82" from="nt6_nt5" id="random132_46800" to="nt4_np4" type="griddistrandom"/>
    <trip arrivalPos="33.68" depart="47414" departPos="172.77" from="nt4_nt8" id="random133_46800" to="nt15_np10" type="griddistrandom"/>
    <trip arrivalPos="41.75" depart="47415" departPos="118.55" from="nt12_nt8" id="random134_46800" to="nt3_np3" type="griddistrandom"/>
    <trip arrivalPos="60.42" depart="47423" departPos="9.34" from="nt9_nt10" id="random135_46800" to="nt9_np14" type="griddistrandom"/>
    <trip arrivalPos="49.19" depart="47427" departPos="34.63" from="np13_nt13" id="random136_46800" to="nt13_nt9" type="griddistrandom"/>
    <trip arrivalPos="57.71" depart="47455" departPos="62.31" from="np13_nt13" id="random137_46800" to="nt4_nt8" type="griddistrandom"/>
    <trip arrivalPos="106.71" depart="47455" departPos="110.01" from="nt10_nt6" id="random138_46800" to="nt10_nt6" type="griddistrandom"/>
    <trip arrivalPos="5.05" depart="47465" departPos="55.19" from="nt12_nt16" id="random139_46800" to="nt5_nt1" type="griddistrandom"/>
    <trip arrivalPos="37.88" depart="47468" departPos="101.31" from="nt14_nt13" id="random140_46800" to="nt9_np14" type="griddistrandom"/>
    <trip arrivalPos="63.64" depart="47476" departPos="45.67" from="nt15_nt14" id="random141_46800" to="nt9_np14" type="griddistrandom"/>
    <trip arrivalPos="143.04" depart="47477" departPos="5.11" from="nt2_nt1" id="random142_46800" to="nt14_nt10" type="griddistrandom"/>
    <trip arrivalPos="62.71" depart="47480" departPos="136.37" from="nt5_nt1" id="random143_46800" to="nt16_nt12" type="griddistrandom"/>
    <trip arrivalPos="163.97" depart="47487" departPos="123.34" from="nt3_nt4" id="random144_46800" to="nt14_nt15" type="griddistrandom"/>
    <trip arrivalPos="35.36" depart="47488" departPos="38.74" from="np15_nt5" id="random145_46800" to="nt9_nt5" type="griddistrandom"/>
    <trip arrivalPos="100.11" depart="47492" departPos="24.68" from="np1_nt1" id="random146_46800" to="nt11_nt15" type="griddistrandom"/>
    <trip arrivalPos="95.65" depart="47499" departPos="182.17" from="nt7_nt8" id="random147_46800" to="nt4_nt3" type="griddistrandom"/>
    <trip arrivalPos="3.31" depart="47502" departPos="159.31" from="nt7_nt6" id="random148_46800" to="nt4_np4" type="griddistrandom"/>
    <trip arrivalPos="48.26" depart="47507" departPos="174.12" from="nt6_nt2" id="random149_46800" to="nt4_nt8" type="griddistrandom"/>
    <trip arrivalPos="14.44" depart="47513" departPos="26.90" from="nt1_nt2" id="random150_46800" to="nt8_np6" type="griddistrandom"/>
    <trip arrivalPos="112.09" depart="47515" departPos="9.79" from="np14_nt9" id="random151_46800" to="nt9_nt13" type="griddistrandom"/>
    <trip arrivalPos="51.76" depart="47520" departPos="43.37" from="nt10_nt6" id="random152_46800" to="nt15_np10" type="griddistrandom"/>
    <trip arrivalPos="88.16" depart="47537" departPos="75.80" from="nt4_nt8" id="random153_46800" to="nt11_nt15" type="griddistrandom"/>
    <trip arrivalPos="130.32" depart="47542" departPos="29.60" from="np13_nt13" id="random154_46800" to="nt5_nt9" type="griddistrandom"/>
    <trip arrivalPos="97.24" depart="47545" departPos="112.72" from="nt14_nt15" id="random155_46800" to="nt8_nt12" type="griddistrandom"/>
    <trip arrivalPos="141.73" depart="47556" departPos="81.42" from="nt7_nt3" id="random156_46800" to="nt5_nt6" type="griddistrandom"/>
    <trip arrivalPos="66.63" depart="47560" departPos="128.42" from="nt11_nt12" id="random157_46800" to="nt1_nt5" type="griddistrandom"/>
    <trip arrivalPos="79.98" depart="47568" departPos="114.08" from="nt6_nt10" id="random158_46800" to="nt12_nt16" type="griddistrandom"/>
    <trip arrivalPos="130.63" depart="47571" departPos="72.32" from="nt3_nt2" id="random159_46800" to="nt10_nt6" type="griddistrandom"/>
    <trip arrivalPos="2.22" depart="47578" departPos="50.38" from="np12_nt13" id="random160_46800" to="nt9_np14" type="griddistrandom"/>
    <trip arrivalPos="67.87" depart="47578" departPos="177.71" from="nt9_nt5" id="random161_46800" to="nt7_nt8" type="griddistrandom"/>
    <trip arrivalPos="87.30" depart="47581" departPos="146.90" from="nt8_nt4" id="random162_46800" to="nt11_nt15" type="griddistrandom"/>
    <trip arrivalPos="6.40" depart="47588" departPos="7.84" from="np2_nt2" id="random163_46800" to="nt11_nt12" type="griddistrandom"/>
    <trip arrivalPos="81.29" depart="47594" departPos="127.64" from="nt9_nt5" id="random164_46800" to="nt9_nt10" type="griddistrandom"/>
    <trip arrivalPos="42.05" depart="47595" departPos="181.59" from="nt2_nt3" id="random165_46800" to="nt6_nt5" type="griddistrandom"/>
    <trip arrivalPos="134.72" depart="47596" departPos="41.40" from="nt5_nt1" id="random166_46800" to="nt3_nt2" type="griddistrandom"/>
    <trip arrivalPos="25.64" depart="47599" departPos="6.23" from="nt11_nt12" id="random167_46800" to="nt14_np11" type="griddistrandom"/>
    <trip arrivalPos="10.61" depart="47610" departPos="118.16" from="nt6_nt2" id="random168_46800" to="nt11_nt12" type="griddistrandom"/>
    <trip arrivalPos="0.82" depart="47613" departPos="47.43" from="nt10_nt6" id="random169_46800" to="nt16_nt15" type="griddistrandom"/>
    <trip arrivalPos="143.65" depart="47621" departPos="142.52" from="nt1_nt2" id="random170_46800" to="nt11_nt7" type="griddistrandom"/>
    <trip arrivalPos="123.51" depart="47621" departPos="150.27" from="nt7_nt11" id="random171_46800" to="nt2_nt1" type="griddistrandom"/>
    <trip arrivalPos="158.02" depart="47625" departPos="134.44" from="nt11_nt12" id="random172_46800" to="nt7_nt3" type="griddistrandom"/>
    <trip arrivalPos="97.93" depart="47644" departPos="79.01" from="nt4_nt8" id="random173_46800" to="nt15_nt16" type="griddistrandom"/>
    <trip arrivalPos="58.47" depart="47651" departPos="184.06" from="nt5_nt6" id="random174_46800" to="nt7_nt8" type="griddistrandom"/>
    <trip arrivalPos="6.65" depart="47654" departPos="122.94" from="nt12_nt11" id="random175_46800" to="nt12_nt11" type="griddistrandom"/>
    <trip arrivalPos="149.38" depart="47663" departPos="156.98" from="nt11_nt10" id="random176_46800" to="nt7_nt3" type="griddistrandom"/>
    <trip arrivalPos="30.86" depart="47663" departPos="127.32" from="nt2_nt6" id="random177_46800" to="nt2_np2" type="griddistrandom"/>
    <trip arrivalPos="106.38" depart="47667" departPos="179.53" from="nt5_nt6" id="random178_46800" to="nt8_nt4" type="griddistrandom"/>
    <trip arrivalPos="132.63" depart="47668" departPos="6.80" from="np6_nt8" id="random179_46800" to="nt14_nt15" type="griddistrandom"/>
    <trip arrivalPos="148.61" depart="47679" departPos="64.60" from="nt10_nt9" id="random180_46800" to="nt16_nt12" type="griddistrandom"/>
    <trip arrivalPos="59.03" depart="47683" departPos="72.16" from="np10_nt15" id="random181_46800" to="nt16_nt15" type="griddistrandom"/>
    <trip arrivalPos="16.09" depart="47686" departPos="34.99" from="np10_nt15" id="random182_46800" to="nt2_nt6" type="griddistrandom"/>
    <trip arrivalPos="86.06" depart="47689" departPos="62.88" from="np2_nt2" id="random183_46800" to="nt6_nt2" type="griddistrandom"/>
    <trip arrivalPos="160.86" depart="47690" departPos="123.27" from="nt5_nt1" id="random184_46800" to="nt13_nt14" type="griddistrandom"/>
    <trip arrivalPos="36.21" depart="47693" departPos="65.76" from="nt9_nt5" id="random185_46800" to="nt4_np5" type="griddistrandom"/>
    <trip arrivalPos="28.49" depart="47698" departPos="47.01" from="np2_nt2" id="random186_46800" to="nt6_nt5" type="griddistrandom"/>
    <trip arrivalPos="59.35" depart="47703" departPos="35.85" from="nt5_nt9" id="random187_46800" to="nt9_nt10" type="griddistrandom"/>
    <trip arrivalPos="159.77" depart="47704" departPos="161.61" from="nt12_nt16" id="random188_46800" to="nt8_nt7" type="griddistrandom"/>
    <trip arrivalPos="88.76" depart="47709" departPos="81.47" from="nt11_nt7" id="random189_46800" to="nt14_nt13" type="griddistrandom"/>
    <trip arrivalPos="43.79" depart="47721" departPos="94.78" from="nt3_nt4" id="random190_46800" to="nt5_nt1" type="griddistrandom"/>
    <trip arrivalPos="9.85" depart="47724" departPos="119.46" from="nt2_nt6" id="random191_46800" to="nt1_np16" type="griddistrandom"/>
    <trip arrivalPos="54.17" depart="47733" departPos="150.87" from="nt4_nt3" id="random192_46800" to="nt6_nt5" type="griddistrandom"/>
    <trip arrivalPos="119.10" depart="47734" departPos="91.64" from="nt9_nt13" id="random193_46800" to="nt3_nt4" type="griddistrandom"/>
    <trip arrivalPos="71.51" depart="47736" departPos="114.73" from="nt16_nt12" id="random194_46800" to="nt9_nt5" type="griddistrandom"/>
    <trip arrivalPos="19.54" depart="47744" departPos="94.73" from="nt7_nt8" id="random195_46800" to="nt10_nt9" type="griddistrandom"/>
    <trip arrivalPos="157.52" depart="47766" departPos="47.94" from="np9_nt16" id="random196_46800" to="nt12_nt16" type="griddistrandom"/>
    <trip arrivalPos="4.74" depart="47768" departPos="100.26" from="nt12_nt8" id="random197_46800" to="nt16_np9" type="griddistrandom"/>
    <trip arrivalPos="76.39" depart="47768" departPos="16.65" from="np2_nt2" id="random198_46800" to="nt1_nt5" type="griddistrandom"/>
    <trip arrivalPos="58.26" depart="47770" departPos="165.57" from="nt9_nt10" id="random199_46800" to="nt15_nt16" type="griddistrandom"/>
    <trip arrivalPos="51.56" depart="47775" departPos="60.66" from="np9_nt16" id="random200_46800" to="nt9_np14" type="griddistrandom"/>
    <trip arrivalPos="69.75" depart="47788" departPos="27.84" from="np2_nt2" id="random201_46800" to="nt14_nt13" type="griddistrandom"/>
    <trip arrivalPos="44.63" depart="47795" departPos="119.33" from="nt5_nt9" id="random202_46800" to="nt16_np8" type="griddistrandom"/>
    <trip arrivalPos="48.64" depart="47797" departPos="175.36" from="nt3_nt2" id="random203_46800" to="nt16_np8" type="griddistrandom"/>
    <trip arrivalPos="40.35" depart="47798" departPos="84.37" from="nt7_nt8" id="random204_46800" to="nt12_nt11" type="griddistrandom"/>
    <trip arrivalPos="138.31" depart="47806" departPos="35.18" from="np4_nt4" id="random205_46800" to="nt6_nt5" type="griddistrandom"/>
    <trip arrivalPos="64.13" depart="47824" departPos="29.70" from="nt4_nt8" id="random206_46800" to="nt4_nt3" type="griddistrandom"/>
    <trip arrivalPos="50.64" depart="47828" departPos="25.83" from="nt8_nt12" id="random207_46800" to="nt10_nt9" type="griddistrandom"/>
    <trip arrivalPos="96.55" depart="47832" departPos="105.50" from="nt10_nt9" id="random208_46800" to="nt16_nt12" type="griddistrandom"/>
    <trip arrivalPos="112.72" depart="47834" departPos="169.29" from="nt3_nt7" id="random209_46800" to="nt7_nt3" type="griddistrandom"/>
    <trip arrivalPos="101.38" depart="47840" departPos="35.06" from="nt11_nt12" id="random210_46800" to="nt9_nt10" type="griddistrandom"/>
    <trip arrivalPos="87.95" depart="47846" departPos="85.58" from="nt5_nt9" id="random211_46800" to="nt16_nt15" type="griddistrandom"/>
    <trip arrivalPos="5.93" depart="47846" departPos="122.58" from="nt2_nt1" id="random212_46800" to="nt15_nt16" type="griddistrandom"/>
    <trip arrivalPos="17.52" depart="47848" departPos="62.52" from="np4_nt4" id="random213_46800" to="nt3_np3" type="griddistrandom"/>
    <trip arrivalPos="176.63" depart="47852" departPos="63.13" from="nt3_nt4" id="random214_46800" to="nt13_nt14" type="griddistrandom"/>
    <trip arrivalPos="59.05" depart="47854" departPos="45.81" from="nt11_nt12" id="random215_46800" to="nt14_np11" type="griddistrandom"/>
    <trip arrivalPos="25.45" depart="47857" departPos="38.40" from="nt10_nt14" id="random216_46800" to="nt10_nt11" type="griddistrandom"/>
    <trip arrivalPos="57.28" depart="47858" departPos="76.99" from="nt10_nt14" id="random217_46800" to="nt6_nt7" type="griddistrandom"/>
    <trip arrivalPos="21.19" depart="47859" departPos="154.12" from="nt10_nt11" id="random218_46800" to="nt3_nt2" type="griddistrandom"/>