<routes>
    <trip arrivalPos="87.22" depart="68405" departPos="97.84" from="nt13_nt9" id="random0_68400" to="nt13_nt9" type="griddistrandom"/>
    <trip arrivalPos="60.42" depart="68427" departPos="34.46" from="nt8_nt4" id="random1_68400" to="nt4_np4" type="griddistrandom"/>
    <trip arrivalPos="29.20" depart="68428" departPos="55.75" from="np4_nt4" id="random2_68400" to="nt8_np6" type="griddistrandom"/>
    <trip arrivalPos="158.62" depart="68436" departPos="3.82" from="np9_nt16" id="random3_68400" to="nt9_nt5" type="griddistrandom"/>
    <trip arrivalPos="111.33" depart="68437" departPos="124.71" from="nt6_nt10" id="random4_68400" to="nt9_nt10" type="griddistrandom"/>
    <trip arrivalPos="58.56" depart="68442" departPos="6.93" from="np2_nt2" id="random5_68400" to="nt8_np6" type="griddistrandom"/>
    <trip arrivalPos="92.73" depart="68446" departPos="22.18" from="np3_nt3" id="random6_68400" to="nt6_nt2" type="griddistrandom"/>
    <trip arrivalPos="46.04" depart="68448" departPos="61.94" from="nt11_nt15" id="random7_68400" to="nt13_np12" type="griddistrandom"/>
    <trip arrivalPos="146.09" depart="68450" departPos="172.39" from="nt4_nt3" id="random8_68400" to="nt2_nt1" type="griddistrandom"/>
    <trip arrivalPos="45.29" depart="68456" departPos="40.79" from="nt5_nt9" id="random9_68400" to="nt8_nt12" type="griddistrandom"/>
    <trip arrivalPos="73.54" depart="68475" departPos="40.94" from="np11_nt14" id="random10_68400" to="nt12_nt16" type="griddistrandom"/>
    <trip arrivalPos="116.08" depart="68483" departPos="176.74" from="nt10_nt6" id="random11_68400" to="nt10_nt9" type="griddistrandom"/>
    <trip arrivalPos="145.58" depart="68487" departPos="52.21" from="nt9_nt5" id="random12_68400" to="nt3_nt7" type="griddistrandom"/>
    <trip arrivalPos="60.08" depart="68489" departPos="46.72" from="np5_nt4" id="random13_68400" to="nt7_nt8" type="griddistrandom"/>
    <trip arrivalPos="66.41" depart="68496" departPos="139.25" from="nt5_nt1" id="random14_68400" to="nt16_nt15" type="griddistrandom"/>
    <trip arrivalPos="129.04" depart="68496" departPos="85.19" from="nt14_nt10" id="random15_68400" to="nt9_nt13" type="griddistrandom"/>
    <trip arrivalPos="57.90" depart="68505" departPos="2.27" from="np14_nt9" id="random16_68400" to="nt1_nt2" type="griddistrandom"/>
    <trip arrivalPos="116.16" depart="68507" departPos="97.50" from="nt5_nt1" id="random17_68400" to="nt10_nt9" type="griddistrandom"/>
    <trip arrivalPos="47.36" depart="68510" departPos="20.55" from="nt7_nt6" id="random18_68400" to="nt16_np8" type="griddistrandom"/>
    <trip arrivalPos="16.75" depart="68527" departPos="124.92" from="nt6_nt10" id="random19_68400" to="nt16_nt12" type="griddistrandom"/>
    <trip arrivalPos="56.46" depart="68528" departPos="6.03" from="np1_nt1" id="random20_68400" to="nt16_np8" type="griddistrandom"/>
    <trip arrivalPos="86.30" depart="68531" departPos="126.33" from="nt13_nt9" id="random21_68400" to="nt1_nt2" type="griddistrandom"/>
    <trip arrivalPos="109.54" depart="68535" departPos="78.34" from="nt6_nt2" id="random22_68400" to="nt10_nt9" type="griddistrandom"/>
    <trip arrivalPos="126.58" depart="68536" departPos="26.49" from="nt1_nt2" id="random23_68400" to="nt11_nt7" type="griddistrandom"/>
    <trip arrivalPos="160.25" depart="68541" departPos="160.67" from="nt8_nt7" id="random24_68400" to="nt13_nt14" type="griddistrandom"/>
    <trip arrivalPos="18.75" depart="68550" departPos="115.26" from="nt14_nt13" id="random25_68400" to="nt12_np7" type="griddistrandom"/>
    <trip arrivalPos="82.84" depart="68550" departPos="117.51" from="nt8_nt4" id="random26_68400" to="nt2_nt6" type="griddistrandom"/>
    <trip arrivalPos="151.78" depart="68557" departPos="40.35" from="np5_nt4" id="random27_68400" to="nt14_nt13" type="griddistrandom"/>
    <trip arrivalPos="48.80" depart="68559" departPos="3.70" from="np16_nt1" id="random28_68400" to="nt4_nt3" type="griddistrandom"/>
    <trip arrivalPos="44.31" depart="68564" departPos="103.06" from="nt11_nt10" id="random29_68400" to="nt10_nt6" type="griddistrandom"/>
    <trip arrivalPos="136.14" depart="68566" departPos="17.95" from="np15_nt5" id="random30_68400" to="nt2_nt1" type="griddistrandom"/>
    <trip arrivalPos="60.61" depart="68568" departPos="92.94" from="nt4_nt8" id="random31_68400" to="nt10_nt6" type="griddistrandom"/>
    <trip arrivalPos="129.44" depart="68568" departPos="136.82" from="nt14_nt15" id="random32_68400" to="nt9_nt13" type="griddistrandom"/>
    <trip arrivalPos="32.88" depart="68582" departPos="21.93" from="np8_nt16" id="random33_68400" to="nt8_nt4" type="griddistrandom"/>
    <trip arrivalPos="59.27" depart="68587" departPos="109.68" from="nt6_nt2" id="random34_68400" to="nt5_nt1" type="griddistrandom"/>
    <trip arrivalPos="46.79" depart="68594" departPos="113.94" from="nt7_nt6" id="random35_68400" to="nt3_np3" type="griddistrandom"/>
    <trip arrivalPos="54.13" depart="68599" departPos="37.48" from="nt6_nt5" id="random36_68400" to="nt12_nt11" type="griddistrandom"/>
    <trip arrivalPos="13.60" depart="68603" departPos="131.46" from="nt6_nt7" id="random37_68400" to="nt6_nt5" type="griddistrandom"/>
    <trip arrivalPos="36.48" depart="68619" departPos="142.43" from="nt5_nt6" id="random38_68400" to="nt7_nt11" type="griddistrandom"/>
    <trip arrivalPos="53.45" depart="68619" departPos="106.97" from="nt7_nt3" id="random39_68400" to="nt1_np1" type="griddistrandom"/>
    <trip arrivalPos="81.00" depart="68621" departPos="141.01" from="nt2_nt1" id="random40_68400" to="nt7_nt6" type="griddistrandom"/>
    <trip arrivalPos="42.60" depart="68625" departPos="6.16" from="nt6_nt5" id="random41_68400" to="nt13_np13" type="griddistrandom"/>
    <trip arrivalPos="65.96" depart="68627" departPos="18.30" from="np3_nt3" id="random42_68400" to="nt12_np7" type="griddistrandom"/>
    <trip arrivalPos="116.03" depart="68631" departPos="124.41" from="nt11_nt15" id="random43_68400" to="nt1_nt5" type="griddistrandom"/>
    <trip arrivalPos="34.20" depart="68635" departPos="89.53" from="nt11_nt10" id="random44_68400" to="nt1_np1" type="griddistrandom"/>
    <trip arrivalPos="95.21" depart="68639" departPos="16.21" from="nt7_nt8" id="random45_68400" to="nt9_nt10" type="griddistrandom"/>
    <trip arrivalPos="51.07" depart="68647" departPos="62.91" from="np6_nt8" id="random46_68400" to="nt13_np13" type="griddistrandom"/>
    <trip arrivalPos="48.14" depart="68649" departPos="159.85" from="nt9_nt5" id="random47_68400" to="nt12_np7" type="griddistrandom"/>
    <trip arrivalPos="13.92" depart="68653" departPos="137.11" from="nt12_nt16" id="random48_68400" to="nt13_np12" type="griddistrandom"/>
    <trip arrivalPos="91.16" depart="68654" departPos="4.85" from="np3_nt3" id="random49_68400" to="nt10_nt14" type="griddistrandom"/>
    <trip arrivalPos="55.64" depart="68656" departPos="8.14" from="nt9_nt5" id="random50_68400" to="nt4_np4" type="griddistrandom"/>
    <trip arrivalPos="13.66" depart="68665" departPos="24.53" from="nt5_nt9" id="random51_68400" to="nt11_nt7" type="griddistrandom"/>
    <trip arrivalPos="148.77" depart="68675" departPos="123.62" from="nt16_nt12" id="random52_68400" to="nt11_nt7" type="griddistrandom"/>
    <trip arrivalPos="68.52" depart="68676" departPos="105.73" from="nt9_nt5" id="random53_68400" to="nt12_nt16" type="griddistrandom"/>
    <trip arrivalPos="37.83" depart="68682" departPos="40.43" from="nt7_nt6" id="random54_68400" to="nt16_nt12" type="griddistrandom"/>
    <trip arrivalPos="57.49" depart="68690" departPos="133.29" from="nt9_nt10" id="random55_68400" to="nt11_nt7" type="griddistrandom"/>
    <trip arrivalPos="120.58" depart="68693" departPos="143.30" from="nt7_nt6" id="random56_68400" to="nt5_nt9" type="griddistrandom"/>
    <trip arrivalPos="69.79" depart="68694" departPos="182.14" from="nt11_nt10" id="random57_68400" to="nt16_nt12" type="griddistrandom"/>
    <trip arrivalPos="51.21" depart="68705" departPos="49.38" from="nt6_nt10" id="random58_68400" to="nt1_np1" type="griddistrandom"/>
    <trip arrivalPos="43.64" depart="68717" departPos="35.84" from="nt12_nt16" id="random59_68400" to="nt16_np8" type="griddistrandom"/>
    <trip arrivalPos="163.82" depart="68717" departPos="75.23" from="nt14_nt13" id="random60_68400" to="nt15_nt14" type="griddistrandom"/>
    <trip arrivalPos="25.16" depart="68719" departPos="76.43" from="nt15_nt11" id="random61_68400" to="nt14_nt13" type="griddistrandom"/>
    <trip arrivalPos="118.13" depart="68722" departPos="53.79" from="nt4_nt3" id="random62_68400" to="nt10_nt6" type="griddistrandom"/>
    <trip arrivalPos="3.98" depart="68729" departPos="11.68" from="nt13_nt14" id="random63_68400" to="nt8_nt4" type="griddistrandom"/>
    <trip arrivalPos="84.52" depart="68732" departPos="139.06" from="nt9_nt13" id="random64_68400" to="nt9_nt13" type="griddistrandom"/>
    <trip arrivalPos="6.99" depart="68732" departPos="158.75" from="nt14_nt13" id="random65_68400" to="nt8_np6" type="griddistrandom"/>
    <trip arrivalPos="81.95" depart="68734" departPos="23.66" from="nt10_nt6" id="random66_68400" to="nt4_nt3" type="griddistrandom"/>
    <trip arrivalPos="148.18" depart="68734" departPos="36.80" from="np13_nt13" id="random67_68400" to="nt5_nt1" type="griddistrandom"/>
    <trip arrivalPos="141.80" depart="68736" departPos="15.88" from="nt6_nt5" id="random68_68400" to="nt6_nt2" type="griddistrandom"/>
    <trip arrivalPos="46.66" depart="68739" departPos="143.53" from="nt8_nt4" id="random69_68400" to="nt11_nt7" type="griddistrandom"/>
    <trip arrivalPos="1.69" depart="68740" departPos="149.80" from="nt2_nt3" id="random70_68400" to="nt1_nt5" type="griddistrandom"/>
    <trip arrivalPos="29.85" depart="68750" departPos="151.76" from="nt10_nt9" id="random71_68400" to="nt9_np14" type="griddistrandom"/>
    <trip arrivalPos="44.91" depart="68755" departPos="172.24" from="nt12_nt8" id="random72_68400" to="nt5_nt1" type="griddistrandom"/>
    <trip arrivalPos="131.58" depart="68763" departPos="8.53" from="np15_nt5" id="random73_68400" to="nt2_nt6" type="griddistrandom"/>
    <trip arrivalPos="120.61" depart="68764" departPos="8.12" from="np3_nt3" id="random74_68400" to="nt4_nt8" type="griddistrandom"/>
    <trip arrivalPos="130.19" depart="68765" departPos="8.32" from="nt9_nt10" id="random75_68400" to="nt11_nt15" type="griddistrandom"/>
    <trip arrivalPos="54.37" depart="68768" departPos="109.02" from="nt6_nt2" id="random76_68400" to="nt4_np5" type="griddistrandom"/>
    <trip arrivalPos="154.87" depart="68768" departPos="135.99" from="nt1_nt5" id="random77_68400" to="nt4_nt3" type="griddistrandom"/>
    <trip arrivalPos="167.89" depart="68788" departPos="128.91" from="nt3_nt4" id="random78_68400" to="nt10_nt14" type="griddistrandom"/>
    <trip arrivalPos="34.50" depart="68797" departPos="119.43" from="nt11_nt10" id="random79_68400" to="nt3_np3" type="griddistrandom"/>
    <trip arrivalPos="58.70" depart="68802" departPos="87.83" from="nt10_nt11" id="random80_68400" to="nt15_nt14" type="griddistrandom"/>
    <trip arrivalPos="57.55" depart="68804" departPos="99.37" from="nt13_nt14" id="random81_68400" to="nt7_nt3" type="griddistrandom"/>
    <trip arrivalPos="20.61" depart="68813" departPos="19.09" from="nt3_nt4" id="random82_68400" to="nt9_nt5" type="griddistrandom"/>
    <trip arrivalPos="30.28" depart="68815" departPos="168.67" from="nt9_nt13" id="random83_68400" to="nt14_nt15" type="griddistrandom"/>
    <trip arrivalPos="140.50" depart="68815" departPos="63.91" from="nt5_nt9" id="random84_68400" to="nt12_nt11" type="griddistrandom"/>
    <trip arrivalPos="51.66" depart="68817" departPos="10.44" from="np8_nt16" id="random85_68400" to="nt1_np16" type="griddistrandom"/>
    <trip arrivalPos="53.15" depart="68820" departPos="144.14" from="nt11_nt15" id="random86_68400" to="nt13_np12" type="griddistrandom"/>
    <trip arrivalPos="106.82" depart="68835" departPos="19.40" from="nt16_nt15" id="random87_68400" to="nt6_nt2" type="griddistrandom"/>
    <trip arrivalPos="70.56" depart="68836" departPos="171.54" from="nt11_nt10" id="random88_68400" to="nt4_np5" type="griddistrandom"/>
    <trip arrivalPos="157.76" depart="68839" departPos="83.38" from="nt6_nt2" id="random89_68400" to="nt8_nt4" type="griddistrandom"/>
    <trip arrivalPos="153.97" depart="68841" departPos="152.36" from="nt15_nt11" id="random90_68400" to="nt8_nt7" type="griddistrandom"/>
    <trip arrivalPos="92.44" depart="68846" departPos="14.13" from="nt1_nt5" id="random91_68400" to="nt10_nt6" type="griddistrandom"/>
    <trip arrivalPos="13.24" depart="68847" departPos="48.35" from="nt5_nt1" id="random92_68400" to="nt2_np2" type="griddistrandom"/>
    <trip arrivalPos="108.82" depart="68848" departPos="29.72" from="np10_nt15" id="random93_68400" to="nt3_nt2" type="griddistrandom"/>
    <trip arrivalPos="9.47" depart="68849" departPos="11.50" from="np15_nt5" id="random94_68400" to="nt1_np16" type="griddistrandom"/>
    <trip arrivalPos="48.32" depart="68850" departPos="4.68" from="nt10_nt9" id="random95_68400" to="nt11_nt12" type="griddistrandom"/>
    <trip arrivalPos="49.49" depart="68853" departPos="53.50" from="nt2_nt3" id="random96_68400" to="nt6_nt2" type="griddistrandom"/>
    <trip arrivalPos="107.43" depart="68855" departPos="95.74" from="nt13_nt14" id="random97_68400" to="nt3_nt7" type="griddistrandom"/>
    <trip arrivalPos="15.72" depart="68856" departPos="41.03" from="np13_nt13" id="random98_68400" to="nt4_np5" type="griddistrandom"/>
    <trip arrivalPos="4.87" depart="68857" departPos="93.72" from="nt3_nt2" id="random99_68400" to="nt7_nt6" type="griddistrandom"/>
    <trip arrivalPos="58.89" depart="68858" departPos="23.75" from="np5_nt4" id="random100_68400" to="nt11_nt12" type="griddistrandom"/>
    <trip arrivalPos="4.91" depart="68861" departPos="70.70" from="nt2_nt1" id="random101_68400" to="nt3_nt2" type="griddistrandom"/>
    <trip arrivalPos="106.85" depart="68865" departPos="55.24" from="np7_nt12" id="random102_68400" to="nt6_nt2" type="griddistrandom"/>
    <trip arrivalPos="39.17" depart="68872" departPos="25.02" from="nt12_nt11" id="random103_68400" to="nt15_nt14" type="griddistrandom"/>
    <trip arrivalPos="24.89" depart="68872" departPos="51.90" from="np1_nt1" id="random104_68400" to="nt5_np15" type="griddistrandom"/>
    <trip arrivalPos="59.40" depart="68873" departPos="141.12" from="nt11_nt15" id="random105_68400" to="nt16_np8" type="griddistrandom"/>
    <trip arrivalPos="18.03" depart="68873" departPos="41.35" from="np15_nt5" id="random106_68400" to="nt16_nt15" type="griddistrandom"/>
    <trip arrivalPos="88.48" depart="68879" departPos="46.84" from="nt11_nt12" id="random107_68400" to="nt11_nt7" type="griddistrandom"/>
    <trip arrivalPos="112.52" depart="68886" departPos="19.16" from="np9_nt16" id="random108_68400" to="nt7_nt6" type="griddistrandom"/>
    <trip arrivalPos="16.30" depart="68898" departPos="58.40" from="np16_nt1" id="random109_68400" to="nt11_nt15" type="griddistrandom"/>
    <trip arrivalPos="25.90" depart="68913" departPos="95.99" from="nt16_nt12" id="random110_68400" to="nt16_nt15" type="griddistrandom"/>
    <trip arrivalPos="81.00" depart="68915" departPos="88.15" from="nt10_nt9" id="random111_68400" to="nt9_nt13" type="griddistrandom"/>
    <trip arrivalPos="117.43" depart="68917" departPos="70.54" from="nt13_nt9" id="random112_68400" to="nt10_nt14" type="griddistrandom"/>
    <trip arrivalPos="21.55" depart="68918" departPos="173.42" from="nt6_nt10" id="random113_68400" to="nt7_nt3" type="griddistrandom"/>
    <trip arrivalPos="166.01" depart="68927" departPos="11.33" from="np5_nt4" id="random114_68400" to="nt11_nt15" type="griddistrandom"/>
    <trip arrivalPos="94.04" depart="68930" departPos="37.23" from="np11_nt14" id="random115_68400" to="nt5_nt9" type="griddistrandom"/>
    <trip arrivalPos="14.69" depart="68936" departPos="34.16" from="np11_nt14" id="random116_68400" to="nt3_np3" type="griddistrandom"/>
    <trip arrivalPos="39.81" depart="68936" departPos="0.66" from="np11_nt14" id="random117_68400" to="nt15_np10" type="griddistrandom"/>
    <trip arrivalPos="43.72" depart="68940" departPos="121.95" from="nt5_nt6" id="random118_68400" to="nt3_nt7" type="griddistrandom"/>
    <trip arrivalPos="15.84" depart="68941" departPos="102.24" from="nt12_nt8" id="random119_68400" to="nt4_np5" type="griddistrandom"/>
    <trip arrivalPos="124.61" depart="68944" departPos="49.51" from="np8_nt16" id="random120_68400" to="nt10_nt11" type="griddistrandom"/>
    <trip arrivalPos="1.87" depart="68951" departPos="34.16" from="nt6_nt7" id="random121_68400" to="nt8_nt12" type="griddistrandom"/>
    <trip arrivalPos="167.97" depart="68953" departPos="142.86" from="nt10_nt9" id="random122_68400" to="nt8_nt7" type="griddistrandom"/>
    <trip arrivalPos="60.01" depart="68964" departPos="7.08" from="nt6_nt5" id="random123_68400" to="nt16_np9" type="griddistrandom"/>
    <trip arrivalPos="40.25" depart="68971" departPos="172.27" from="nt5_nt6" id="random124_68400" to="nt16_np8" type="griddistrandom"/>
    <trip arrivalPos="149.13" depart="68975" departPos="32.54" from="nt11_nt15" id="random125_68400" to="nt13_nt9" type="griddistrandom"/>
    <trip arrivalPos="31.71" depart="68975" departPos="167.83" from="nt8_nt4" id="random126_68400" to="nt13_nt9" type="griddistrandom"/>
    <trip arrivalPos="101.61" depart="68982" departPos="35.58" from="nt9_nt13" id="random127_68400" to="nt4_nt3" type="griddistrandom"/>
    <trip arrivalPos="140.17" depart="68996" departPos="22.19" from="np2_nt2" id="random128_68400" to="nt13_nt14" type="griddistrandom"/>
    <trip arrivalPos="121.45" depart="68997" departPos="16.02" from="nt7_nt8" id="random129_68400" to="nt3_nt4" type="griddistrandom"/>
    <trip arrivalPos="59.60" depart="69001" departPos="0.41" from="nt7_nt3" id="random130_68400" to="nt2_nt3" type="griddistrandom"/>
    <trip arrivalPos="33.93" depart="69004" departPos="33.14" from="np12_nt13" id="random131_68400" to="nt3_np3" type="griddistrandom"/>
    <trip arrivalPos="40.25" depart="69010" departPos="64.82" from="nt6_nt5" id="random132_68400" to="nt4_np4" type="griddistrandom"/>
    <trip arrivalPos="33.68" depart="69014" departPos="172.77" from="nt4_nt8" id="random133_68400" to="nt15_np10" type="griddistrandom"/>
    <trip arrivalPos="41.75" depart="69015" departPos="118.55" from="nt12_nt8" id="random134_68400" to="nt3_np3" type="griddistrandom"/>
    <trip arrivalPos="60.42" depart="69023" departPos="9.34" from="nt9_nt10" id="random135_68400" to="nt9_np14" type="griddistrandom"/>
    <trip arrivalPos="49.19" depart="69027" departPos="34.63" from="np13_nt13" id="random136_68400" to="nt13_nt9" type="griddistrandom"/>
    <trip arrivalPos="57.71" depart="69055" departPos="62.31" from="np13_nt13" id="random137_68400" to="nt4_nt8" type="griddistrandom"/>
    <trip arrivalPos="106.71" depart="69055" departPos="110.01" from="nt10_nt6" id="random138_68400" to="nt10_nt6" type="griddistrandom"/>
    <trip arrivalPos="5.05" depart="69065" departPos="55.19" from="nt12_nt16" id="random139_68400" to="nt5_nt1" type="griddistrandom"/>
    <trip arrivalPos="37.88" depart="69068" departPos="101.31" from="nt14_nt13" id="random140_68400" to="nt9_np14" type="griddistrandom"/>
    <trip arrivalPos="63.64" depart="69076" departPos="45.67" from="nt15_nt14" id="random141_68400" to="nt9_np14" type="griddistrandom"/>
    <trip arrivalPos="143.04" depart="69077" departPos="5.11" from="nt2_nt1" id="random142_68400" to="nt14_nt10" type="griddistrandom"/>
    <trip arrivalPos="62.71" depart="69080" departPos="136.37" from="nt5_nt1" id="random143_68400" to="nt16_nt12" type="griddistrandom"/>
    <trip arrivalPos="163.97" depart="69087" departPos="123.34" from="nt3_nt4" id="random144_68400" to="nt14_nt15" type="griddistrandom"/>
    <trip arrivalPos="35.36" depart="69088" departPos="38.74" from="np15_nt5" id="random145_68400" to="nt9_nt5" type="griddistrandom"/>
    <trip arrivalPos="100.11" depart="69092" departPos="24.68" from="np1_nt1" id="random146_68400" to="nt11_nt15" type="griddistrandom"/>
    <trip arrivalPos="95.65" depart="69099" departPos="182.17" from="nt7_nt8" id="random147_68400" to="nt4_nt3" type="griddistrandom"/>
    <trip arrivalPos="3.31" depart="69102" departPos="159.31" from="nt7_nt6" id="random148_68400" to="nt4_np4" type="griddistrandom"/>
    <trip arrivalPos="48.26" depart="69107" departPos="174.12" from="nt6_nt2" id="random149_68400" to="nt4_nt8" type="griddistrandom"/>
    <trip arrivalPos="14.44" depart="69113" departPos="26.90" from="nt1_nt2" id="random150_68400" to="nt8_np6" type="griddistrandom"/>
    <trip arrivalPos="112.09" depart="69115" departPos="9.79" from="np14_nt9" id="random151_68400" to="nt9_nt13" type="griddistrandom"/>
    <trip arrivalPos="51.76" depart="69120" departPos="43.37" from="nt10_nt6" id="random152_68400" to="nt15_np10" type="griddistrandom"/>
    <trip arrivalPos="88.16" depart="69137" departPos="75.80" from="nt4_nt8" id="random153_68400" to="nt11_nt15" type="griddistrandom"/>
    <trip arrivalPos="130.32" depart="69142" departPos="29.60" from="np13_nt13" id="random154_68400" to="nt5_nt9" type="griddistrandom"/>
    <trip arrivalPos="97.24" depart="69145" departPos="112.72" from="nt14_nt15" id="random155_68400" to="nt8_nt12" type="griddistrandom"/>
    <trip arrivalPos="141.73" depart="69156" departPos="81.42" from="nt7_nt3" id="random156_68400" to="nt5_nt6" type="griddistrandom"/>
    <trip arrivalPos="66.63" depart="69160" departPos="128.42" from="nt11_nt12" id="random157_68400" to="nt1_nt5" type="griddistrandom"/>
    <trip arrivalPos="79.98" depart="69168" departPos="114.08" from="nt6_nt10" id="random158_68400" to="nt12_nt16" type="griddistrandom"/>
    <trip arrivalPos="130.63" depart="69171" departPos="72.32" from="nt3_nt2" id="random159_68400" to="nt10_nt6" type="griddistrandom"/>
    <trip arrivalPos="2.22" depart="69178" departPos="50.38" from="np12_nt13" id="random160_68400" to="nt9_np14" type="griddistrandom"/>
    <trip arrivalPos="67.87" depart="69178" departPos="177.71" from="nt9_nt5" id="random161_68400" to="nt7_nt8" type="griddistrandom"/>
    <trip arrivalPos="87.30" depart="69181" departPos="146.90" from="nt8_nt4" id="random162_68400" to="nt11_nt15" type="griddistrandom"/>
    <trip arrivalPos="6.40" depart="69188" departPos="7.84" from="np2_nt2" id="random163_68400" to="nt11_nt12" type="griddistrandom"/>
    <trip arrivalPos="81.29" depart="69194" departPos="127.64" from="nt9_nt5" id="random164_68400" to="nt9_nt10" type="griddistrandom"/>
    <trip arrivalPos="42.05" depart="69195" departPos="181.59" from="nt2_nt3" id="random165_68400" to="nt6_nt5" type="griddistrandom"/>
    <trip arrivalPos="134.72" depart="69196" departPos="41.40" from="nt5_nt1" id="random166_68400" to="nt3_nt2" type="griddistrandom"/>
    <trip arrivalPos="25.64" depart="69199" departPos="6.23" from="nt11_nt12" id="random167_68400" to="nt14_np11" type="griddistrandom"/>
    <trip arrivalPos="10.61" depart="69210" departPos="118.16" from="nt6_nt2" id="random168_68400" to="nt11_nt12" type="griddistrandom"/>
    <trip arrivalPos="0.82" depart="69213" departPos="47.43" from="nt10_nt6" id="random169_68400" to="nt16_nt15" type="griddistrandom"/>
    <trip arrivalPos="143.65" depart="69221" departPos="142.52" from="nt1_nt2" id="random170_68400" to="nt11_nt7" type="griddistrandom"/>
    <trip arrivalPos="123.51" depart="69221" departPos="150.27" from="nt7_nt11" id="random171_68400" to="nt2_nt1" type="griddistrandom"/>
    <trip arrivalPos="158.02" depart="69225" departPos="134.44" from="nt11_nt12" id="random172_68400" to="nt7_nt3" type="griddistrandom"/>
    <trip arrivalPos="97.93" depart="69244" departPos="79.01" from="nt4_nt8" id="random173_68400" to="nt15_nt16" type="griddistrandom"/>
    <trip arrivalPos="58.47" depart="69251" departPos="184.06" from="nt5_nt6" id="random174_68400" to="nt7_nt8" type="griddistrandom"/>
    <trip arrivalPos="6.65" depart="69254" departPos="122.94" from="nt12_nt11" id="random175_68400" to="nt12_nt11" type="griddistrandom"/>
    <trip arrivalPos="149.38" depart="69263" departPos="156.98" from="nt11_nt10" id="random176_68400" to="nt7_nt3" type="griddistrandom"/>
    <trip arrivalPos="30.86" depart="69263" departPos="127.32" from="nt2_nt6" id="random177_68400" to="nt2_np2" type="griddistrandom"/>
    <trip arrivalPos="106.38" depart="69267" departPos="179.53" from="nt5_nt6" id="random178_68400" to="nt8_nt4" type="griddistrandom"/>
    <trip arrivalPos="132.63" depart="69268" departPos="6.80" from="np6_nt8" id="random179_68400" to="nt14_nt15" type="griddistrandom"/>
    <trip arrivalPos="148.61" depart="69279" departPos="64.60" from="nt10_nt9" id="random180_68400" to="nt16_nt12" type="griddistrandom"/>
    <trip arrivalPos="59.03" depart="69283" departPos="72.16" from="np10_nt15" id="random181_68400" to="nt16_nt15" type="griddistrandom"/>
    <trip arrivalPos="16.09" depart="69286" departPos="34.99" from="np10_nt15" id="random182_68400" to="nt2_nt6" type="griddistrandom"/>
    <trip arrivalPos="86.06" depart="69289" departPos="62.88" from="np2_nt2" id="random183_68400" to="nt6_nt2" type="griddistrandom"/>
    <trip arrivalPos="160.86" depart="69290" departPos="123.27" from="nt5_nt1" id="random184_68400" to="nt13_nt14" type="griddistrandom"/>
    <trip arrivalPos="36.21" depart="69293" departPos="65.76" from="nt9_nt5" id="random185_68400" to="nt4_np5" type="griddistrandom"/>
    <trip arrivalPos="28.49" depart="69298" departPos="47.01" from="np2_nt2" id="random186_68400" to="nt6_nt5" type="griddistrandom"/>
    <trip arrivalPos="59.35" depart="69303" departPos="35.85" from="nt5_nt9" id="random187_68400" to="nt9_nt10" type="griddistrandom"/>
    <trip arrivalPos="159.77" depart="69304" departPos="161.61" from="nt12_nt16" id="random188_68400" to="nt8_nt7" type="griddistrandom"/>
    <trip arrivalPos="88.76" depart="69309" departPos="81.47" from="nt11_nt7" id="random189_68400" to="nt14_nt13" type="griddistrandom"/>
    <trip arrivalPos="43.79" depart="69321" departPos="94.78" from="nt3_nt4" id="random190_68400" to="nt5_nt1" type="griddistrandom"/>
    <trip arrivalPos="9.85" depart="69324" departPos="119.46" from="nt2_nt6" id="random191_68400" to="nt1_np16" type="griddistrandom"/>
    <trip arrivalPos="54.17" depart="69333" departPos="150.87" from="nt4_nt3" id="random192_68400" to="nt6_nt5" type="griddistrandom"/>
    <trip arrivalPos="119.10" depart="69334" departPos="91.64" from="nt9_nt13" id="random193_68400" to="nt3_nt4" type="griddistrandom"/>
    <trip arrivalPos="71.51" depart="69336" departPos="114.73" from="nt16_nt12" id="random194_68400" to="nt9_nt5" type="griddistrandom"/>
    <trip arrivalPos="19.54" depart="69344" departPos="94.73" from="nt7_nt8" id="random195_68400" to="nt10_nt9" type="griddistrandom"/>
    <trip arrivalPos="157.52" depart="69366" departPos="47.94" from="np9_nt16" id="random196_68400" to="nt12_nt16" type="griddistrandom"/>
    <trip arrivalPos="4.74" depart="69368" departPos="100.26" from="nt12_nt8" id="random197_68400" to="nt16_np9" type="griddistrandom"/>
    <trip arrivalPos="76.39" depart="69368" departPos="16.65" from="np2_nt2" id="random198_68400" to="nt1_nt5" type="griddistrandom"/>
    <trip arrivalPos="58.26" depart="69370" departPos="165.57" from="nt9_nt10" id="random199_68400" to="nt15_nt16" type="griddistrandom"/>
    <trip arrivalPos="51.56" depart="69375" departPos="60.66" from="np9_nt16" id="random200_68400" to="nt9_np14" type="griddistrandom"/>
    <trip arrivalPos="69.75" depart="69388" departPos="27.84" from="np2_nt2" id="random201_68400" to="nt14_nt13" type="griddistrandom"/>
    <trip arrivalPos="44.63" depart="69395" departPos="119.33" from="nt5_nt9" id="random202_68400" to="nt16_np8" type="griddistrandom"/>
    <trip arrivalPos="48.64" depart="69397" departPos="175.36" from="nt3_nt2" id="random203_68400" to="nt16_np8" type="griddistrandom"/>
    <trip arrivalPos="40.35" depart="69398" departPos="84.37" from="nt7_nt8" id="random204_68400" to="nt12_nt11" type="griddistrandom"/>
    <trip arrivalPos="138.31" depart="69406" departPos="35.18" from="np4_nt4" id="random205_68400" to="nt6_nt5" type="griddistrandom"/>
    <trip arrivalPos="64.13" depart="69424" departPos="29.70" from="nt4_nt8" id="random206_68400" to="nt4_nt3" type="griddistrandom"/>
    <trip arrivalPos="50.64" depart="69428" departPos="25.83" from="nt8_nt12" id="random207_68400" to="nt10_nt9" type="griddistrandom"/>
    <trip arrivalPos="96.55" depart="69432" departPos="105.50" from="nt10_nt9" id="random208_68400" to="nt16_nt12" type="griddistrandom"/>
    <trip arrivalPos="112.72" depart="69434" departPos="169.29" from="nt3_nt7" id="random209_68400" to="nt7_nt3" type="griddistrandom"/>
    <trip arrivalPos="101.38" depart="69440" departPos="35.06" from="nt11_nt12" id="random210_68400" to="nt9_nt10" type="griddistrandom"/>
    <trip arrivalPos="87.95" depart="69446" departPos="85.58" from="nt5_nt9" id="random211_68400" to="nt16_nt15" type="griddistrandom"/>
    <trip arrivalPos="5.93" depart="69446" departPos="122.58" from="nt2_nt1" id="random212_68400" to="nt15_nt16" type="griddistrandom"/>
    <trip arrivalPos="17.52" depart="69448" departPos="62.52" from="np4_nt4" id="random213_68400" to="nt3_np3" type="griddistrandom"/>
    <trip arrivalPos="176.63" depart="69452" departPos="63.13" from="nt3_nt4" id="random214_68400" to="nt13_nt14" type="griddistrandom"/>
    <trip arrivalPos="59.05" depart="69454" departPos="45.81" from="nt11_nt12" id="random215_68400" to="nt14_np11" type="griddistrandom"/>
    <trip arrivalPos="25.45" depart="69457" departPos="38.40" from="nt10_nt14" id="random216_68400" to="nt10_nt11" type="griddistrandom"/>
    <trip arrivalPos="57.28" depart="69458" departPos="76.99" from="nt10_nt14" id="random217_68400" to="nt6_nt7" type="griddistrandom"/>
    <trip arrivalPos="21.19" depart="69459" departPos="154.12" from="nt10_nt11" id="random218_68400" to="nt3_nt2" type="griddistrandom"/>