<routes>
    <trip arrivalPos="87.22" depart="64805" departPos="97.84" from="nt13_nt9" id="random0_64800" to="nt13_nt9" type="griddistrandom"/>
    <trip arrivalPos="60.42" depart="64827" departPos="34.46" from="nt8_nt4" id="random1_64800" to="nt4_np4" type="griddistrandom"/>
    <trip arrivalPos="29.20" depart="64828" departPos="55.75" from="np4_nt4" id="random2_64800" to="nt8_np6" type="griddistrandom"/>
    <trip arrivalPos="158.62" depart="64836" departPos="3.82" from="np9_nt16" id="random3_64800" to="nt9_nt5" type="griddistrandom"/>
    <trip arrivalPos="111.33" depart="64837" departPos="124.71" from="nt6_nt10" id="random4_64800" to="nt9_nt10" type="griddistrandom"/>
    <trip arrivalPos="58.56" depart="64842" departPos="6.93" from="np2_nt2" id="random5_64800" to="nt8_np6" type="griddistrandom"/>
    <trip arrivalPos="92.73" depart="64846" departPos="22.18" from="np3_nt3" id="random6_64800" to="nt6_nt2" type="griddistrandom"/>
    <trip arrivalPos="46.04" depart="64848" departPos="61.94" from="nt11_nt15" id="random7_64800" to="nt13_np12" type="griddistrandom"/>
    <trip arrivalPos="146.09" depart="64850" departPos="172.39" from="nt4_nt3" id="random8_64800" to="nt2_nt1" type="griddistrandom"/>
    <trip arrivalPos="45.29" depart="64856" departPos="40.79" from="nt5_nt9" id="random9_64800" to="nt8_nt12" type="griddistrandom"/>
    <trip arrivalPos="73.54" depart="64875" departPos="40.94" from="np11_nt14" id="random10_64800" to="nt12_nt16" type="griddistrandom"/>
    <trip arrivalPos="116.08" depart="64883" departPos="176.74" from="nt10_nt6" id="random11_64800" to="nt10_nt9" type="griddistrandom"/>
    <trip arrivalPos="145.58" depart="64887" departPos="52.21" from="nt9_nt5" id="random12_64800" to="nt3_nt7" type="griddistrandom"/>
    <trip arrivalPos="60.08" depart="64889" departPos="46.72" from="np5_nt4" id="random13_64800" to="nt7_nt8" type="griddistrandom"/>
    <trip arrivalPos="66.41" depart="64896" departPos="139.25" from="nt5_nt1" id="random14_64800" to="nt16_nt15" type="griddistrandom"/>
    <trip arrivalPos="129.04" depart="64896" departPos="85.19" from="nt14_nt10" id="random15_64800" to="nt9_nt13" type="griddistrandom"/>
    <trip arrivalPos="57.90" depart="64905" departPos="2.27" from="np14_nt9" id="random16_64800" to="nt1_nt2" type="griddistrandom"/>
    <trip arrivalPos="116.16" depart="64907" departPos="97.50" from="nt5_nt1" id="random17_64800" to="nt10_nt9" type="griddistrandom"/>
    <trip arrivalPos="47.36" depart="64910" departPos="20.55" from="nt7_nt6" id="random18_64800" to="nt16_np8" type="griddistrandom"/>
    <trip arrivalPos="16.75" depart="64927" departPos="124.92" from="nt6_nt10" id="random19_64800" to="nt16_nt12" type="griddistrandom"/>
    <trip arrivalPos="56.46" depart="64928" departPos="6.03" from="np1_nt1" id="random20_64800" to="nt16_np8" type="griddistrandom"/>
    <trip arrivalPos="86.30" depart="64931" departPos="126.33" from="nt13_nt9" id="random21_64800" to="nt1_nt2" type="griddistrandom"/>
    <trip arrivalPos="109.54" depart="64935" departPos="78.34" from="nt6_nt2" id="random22_64800" to="nt10_nt9" type="griddistrandom"/>
    <trip arrivalPos="126.58" depart="64936" departPos="26.49" from="nt1_nt2" id="random23_64800" to="nt11_nt7" type="griddistrandom"/>
    <trip arrivalPos="160.25" depart="64941" departPos="160.67" from="nt8_nt7" id="random24_64800" to="nt13_nt14" type="griddistrandom"/>
    <trip arrivalPos="18.75" depart="64950" departPos="115.26" from="nt14_nt13" id="random25_64800" to="nt12_np7" type="griddistrandom"/>
    <trip arrivalPos="82.84" depart="64950" departPos="117.51" from="nt8_nt4" id="random26_64800" to="nt2_nt6" type="griddistrandom"/>
    <trip arrivalPos="151.78" depart="64957" departPos="40.35" from="np5_nt4" id="random27_64800" to="nt14_nt13" type="griddistrandom"/>
    <trip arrivalPos="48.80" depart="64959" departPos="3.70" from="np16_nt1" id="random28_64800" to="nt4_nt3" type="griddistrandom"/>
    <trip arrivalPos="44.31" depart="64964" departPos="103.06" from="nt11_nt10" id="random29_64800" to="nt10_nt6" type="griddistrandom"/>
    <trip arrivalPos="136.14" depart="64966" departPos="17.95" from="np15_nt5" id="random30_64800" to="nt2_nt1" type="griddistrandom"/>
    <trip arrivalPos="60.61" depart="64968" departPos="92.94" from="nt4_nt8" id="random31_64800" to="nt10_nt6" type="griddistrandom"/>
    <trip arrivalPos="129.44" depart="64968" departPos="136.82" from="nt14_nt15" id="random32_64800" to="nt9_nt13" type="griddistrandom"/>
    <trip arrivalPos="32.88" depart="64982" departPos="21.93" from="np8_nt16" id="random33_64800" to="nt8_nt4" type="griddistrandom"/>
    <trip arrivalPos="59.27" depart="64987" departPos="109.68" from="nt6_nt2" id="random34_64800" to="nt5_nt1" type="griddistrandom"/>
    <trip arrivalPos="46.79" depart="64994" departPos="113.94" from="nt7_nt6" id="random35_64800" to="nt3_np3" type="griddistrandom"/>
    <trip arrivalPos="54.13" depart="64999" departPos="37.48" from="nt6_nt5" id="random36_64800" to="nt12_nt11" type="griddistrandom"/>
    <trip arrivalPos="13.60" depart="65003" departPos="131.46" from="nt6_nt7" id="random37_64800" to="nt6_nt5" type="griddistrandom"/>
    <trip arrivalPos="36.48" depart="65019" departPos="142.43" from="nt5_nt6" id="random38_64800" to="nt7_nt11" type="griddistrandom"/>
    <trip arrivalPos="53.45" depart="65019" departPos="106.97" from="nt7_nt3" id="random39_64800" to="nt1_np1" type="griddistrandom"/>
    <trip arrivalPos="81.00" depart="65021" departPos="141.01" from="nt2_nt1" id="random40_64800" to="nt7_nt6" type="griddistrandom"/>
    <trip arrivalPos="42.60" depart="65025" departPos="6.16" from="nt6_nt5" id="random41_64800" to="nt13_np13" type="griddistrandom"/>
    <trip arrivalPos="65.96" depart="65027" departPos="18.30" from="np3_nt3" id="random42_64800" to="nt12_np7" type="griddistrandom"/>
    <trip arrivalPos="116.03" depart="65031" departPos="124.41" from="nt11_nt15" id="random43_64800" to="nt1_nt5" type="griddistrandom"/>
    <trip arrivalPos="34.20" depart="65035" departPos="89.53" from="nt11_nt10" id="random44_64800" to="nt1_np1" type="griddistrandom"/>
    <trip arrivalPos="95.21" depart="65039" departPos="16.21" from="nt7_nt8" id="random45_64800" to="nt9_nt10" type="griddistrandom"/>
    <trip arrivalPos="51.07" depart="65047" departPos="62.91" from="np6_nt8" id="random46_64800" to="nt13_np13" type="griddistrandom"/>
    <trip arrivalPos="48.14" depart="65049" departPos="159.85" from="nt9_nt5" id="random47_64800" to="nt12_np7" type="griddistrandom"/>
    <trip arrivalPos="13.92" depart="65053" departPos="137.11" from="nt12_nt16" id="random48_64800" to="nt13_np12" type="griddistrandom"/>
    <trip arrivalPos="91.16" depart="65054" departPos="4.85" from="np3_nt3" id="random49_64800" to="nt10_nt14" type="griddistrandom"/>
    <trip arrivalPos="55.64" depart="65056" departPos="8.14" from="nt9_nt5" id="random50_64800" to="nt4_np4" type="griddistrandom"/>
    <trip arrivalPos="13.66" depart="65065" departPos="24.53" from="nt5_nt9" id="random51_64800" to="nt11_nt7" type="griddistrandom"/>
    <trip arrivalPos="148.77" depart="65075" departPos="123.62" from="nt16_nt12" id="random52_64800" to="nt11_nt7" type="griddistrandom"/>
    <trip arrivalPos="68.52" depart="65076" departPos="105.73" from="nt9_nt5" id="random53_64800" to="nt12_nt16" type="griddistrandom"/>
    <trip arrivalPos="37.83" depart="65082" departPos="40.43" from="nt7_nt6" id="random54_64800" to="nt16_nt12" type="griddistrandom"/>
    <trip arrivalPos="57.49" depart="65090" departPos="133.29" from="nt9_nt10" id="random55_64800" to="nt11_nt7" type="griddistrandom"/>
    <trip arrivalPos="120.58" depart="65093" departPos="143.30" from="nt7_nt6" id="random56_64800" to="nt5_nt9" type="griddistrandom"/>
    <trip arrivalPos="69.79" depart="65094" departPos="182.14" from="nt11_nt10" id="random57_64800" to="nt16_nt12" type="griddistrandom"/>
    <trip arrivalPos="51.21" depart="65105" departPos="49.38" from="nt6_nt10" id="random58_64800" to="nt1_np1" type="griddistrandom"/>
    <trip arrivalPos="43.64" depart="65117" departPos="35.84" from="nt12_nt16" id="random59_64800" to="nt16_np8" type="griddistrandom"/>
    <trip arrivalPos="163.82" depart="65117" departPos="75.23" from="nt14_nt13" id="random60_64800" to="nt15_nt14" type="griddistrandom"/>
    <trip arrivalPos="25.16" depart="65119" departPos="76.43" from="nt15_nt11" id="random61_64800" to="nt14_nt13" type="griddistrandom"/>
    <trip arrivalPos="118.13" depart="65122" departPos="53.79" from="nt4_nt3" id="random62_64800" to="nt10_nt6" type="griddistrandom"/>
    <trip arrivalPos="3.98" depart="65129" departPos="11.68" from="nt13_nt14" id="random63_64800" to="nt8_nt4" type="griddistrandom"/>
    <trip arrivalPos="84.52" depart="65132" departPos="139.06" from="nt9_nt13" id="random64_64800" to="nt9_nt13" type="griddistrandom"/>
    <trip arrivalPos="6.99" depart="65132" departPos="158.75" from="nt14_nt13" id="random65_64800" to="nt8_np6" type="griddistrandom"/>
    <trip arrivalPos="81.95" depart="65134" departPos="23.66" from="nt10_nt6" id="random66_64800" to="nt4_nt3" type="griddistrandom"/>
    <trip arrivalPos="148.18" depart="65134" departPos="36.80" from="np13_nt13" id="random67_64800" to="nt5_nt1" type="griddistrandom"/>
    <trip arrivalPos="141.80" depart="65136" departPos="15.88" from="nt6_nt5" id="random68_64800" to="nt6_nt2" type="griddistrandom"/>
    <trip arrivalPos="46.66" depart="65139" departPos="143.53" from="nt8_nt4" id="random69_64800" to="nt11_nt7" type="griddistrandom"/>
    <trip arrivalPos="1.69" depart="65140" departPos="149.80" from="nt2_nt3" id="random70_64800" to="nt1_nt5" type="griddistrandom"/>
    <trip arrivalPos="29.85" depart="65150" departPos="151.76" from="nt10_nt9" id="random71_64800" to="nt9_np14" type="griddistrandom"/>
    <trip arrivalPos="44.91" depart="65155" departPos="172.24" from="nt12_nt8" id="random72_64800" to="nt5_nt1" type="griddistrandom"/>
    <trip arrivalPos="131.58" depart="65163" departPos="8.53" from="np15_nt5" id="random73_64800" to="nt2_nt6" type="griddistrandom"/>
    <trip arrivalPos="120.61" depart="65164" departPos="8.12" from="np3_nt3" id="random74_64800" to="nt4_nt8" type="griddistrandom"/>
    <trip arrivalPos="130.19" depart="65165" departPos="8.32" from="nt9_nt10" id="random75_64800" to="nt11_nt15" type="griddistrandom"/>
    <trip arrivalPos="54.37" depart="65168" departPos="109.02" from="nt6_nt2" id="random76_64800" to="nt4_np5" type="griddistrandom"/>
    <trip arrivalPos="154.87" depart="65168" departPos="135.99" from="nt1_nt5" id="random77_64800" to="nt4_nt3" type="griddistrandom"/>
    <trip arrivalPos="167.89" depart="65188" departPos="128.91" from="nt3_nt4" id="random78_64800" to="nt10_nt14" type="griddistrandom"/>
    <trip arrivalPos="34.50" depart="65197" departPos="119.43" from="nt11_nt10" id="random79_64800" to="nt3_np3" type="griddistrandom"/>
    <trip arrivalPos="58.70" depart="65202" departPos="87.83" from="nt10_nt11" id="random80_64800" to="nt15_nt14" type="griddistrandom"/>
    <trip arrivalPos="57.55" depart="65204" departPos="99.37" from="nt13_nt14" id="random81_64800" to="nt7_nt3" type="griddistrandom"/>
    <trip arrivalPos="20.61" depart="65213" departPos="19.09" from="nt3_nt4" id="random82_64800" to="nt9_nt5" type="griddistrandom"/>
    <trip arrivalPos="30.28" depart="65215" departPos="168.67" from="nt9_nt13" id="random83_64800" to="nt14_nt15" type="griddistrandom"/>
    <trip arrivalPos="140.50" depart="65215" departPos="63.91" from="nt5_nt9" id="random84_64800" to="nt12_nt11" type="griddistrandom"/>
    <trip arrivalPos="51.66" depart="65217" departPos="10.44" from="np8_nt16" id="random85_64800" to="nt1_np16" type="griddistrandom"/>
    <trip arrivalPos="53.15" depart="65220" departPos="144.14" from="nt11_nt15" id="random86_64800" to="nt13_np12" type="griddistrandom"/>
    <trip arrivalPos="106.82" depart="65235" departPos="19.40" from="nt16_nt15" id="random87_64800" to="nt6_nt2" type="griddistrandom"/>
    <trip arrivalPos="70.56" depart="65236" departPos="171.54" from="nt11_nt10" id="random88_64800" to="nt4_np5" type="griddistrandom"/>
    <trip arrivalPos="157.76" depart="65239" departPos="83.38" from="nt6_nt2" id="random89_64800" to="nt8_nt4" type="griddistrandom"/>
    <trip arrivalPos="153.97" depart="65241" departPos="152.36" from="nt15_nt11" id="random90_64800" to="nt8_nt7" type="griddistrandom"/>
    <trip arrivalPos="92.44" depart="65246" departPos="14.13" from="nt1_nt5" id="random91_64800" to="nt10_nt6" type="griddistrandom"/>
    <trip arrivalPos="13.24" depart="65247" departPos="48.35" from="nt5_nt1" id="random92_64800" to="nt2_np2" type="griddistrandom"/>
    <trip arrivalPos="108.82" depart="65248" departPos="29.72" from="np10_nt15" id="random93_64800" to="nt3_nt2" type="griddistrandom"/>
    <trip arrivalPos="9.47" depart="65249" departPos="11.50" from="np15_nt5" id="random94_64800" to="nt1_np16" type="griddistrandom"/>
    <trip arrivalPos="48.32" depart="65250" departPos="4.68" from="nt10_nt9" id="random95_64800" to="nt11_nt12" type="griddistrandom"/>
    <trip arrivalPos="49.49" depart="65253" departPos="53.50" from="nt2_nt3" id="random96_64800" to="nt6_nt2" type="griddistrandom"/>
    <trip arrivalPos="107.43" depart="65255" departPos="95.74" from="nt13_nt14" id="random97_64800" to="nt3_nt7" type="griddistrandom"/>
    <trip arrivalPos="15.72" depart="65256" departPos="41.03" from="np13_nt13" id="random98_64800" to="nt4_np5" type="griddistrandom"/>
    <trip arrivalPos="4.87" depart="65257" departPos="93.72" from="nt3_nt2" id="random99_64800" to="nt7_nt6" type="griddistrandom"/>
    <trip arrivalPos="58.89" depart="65258" departPos="23.75" from="np5_nt4" id="random100_64800" to="nt11_nt12" type="griddistrandom"/>
    <trip arrivalPos="4.91" depart="65261" departPos="70.70" from="nt2_nt1" id="random101_64800" to="nt3_nt2" type="griddistrandom"/>
    <trip arrivalPos="106.85" depart="65265" departPos="55.24" from="np7_nt12" id="random102_64800" to="nt6_nt2" type="griddistrandom"/>
    <trip arrivalPos="39.17" depart="65272" departPos="25.02" from="nt12_nt11" id="random103_64800" to="nt15_nt14" type="griddistrandom"/>
    <trip arrivalPos="24.89" depart="65272" departPos="51.90" from="np1_nt1" id="random104_64800" to="nt5_np15" type="griddistrandom"/>
    <trip arrivalPos="59.40" depart="65273" departPos="141.12" from="nt11_nt15" id="random105_64800" to="nt16_np8" type="griddistrandom"/>
    <trip arrivalPos="18.03" depart="65273" departPos="41.35" from="np15_nt5" id="random106_64800" to="nt16_nt15" type="griddistrandom"/>
    <trip arrivalPos="88.48" depart="65279" departPos="46.84" from="nt11_nt12" id="random107_64800" to="nt11_nt7" type="griddistrandom"/>
    <trip arrivalPos="112.52" depart="65286" departPos="19.16" from="np9_nt16" id="random108_64800" to="nt7_nt6" type="griddistrandom"/>
    <trip arrivalPos="16.30" depart="65298" departPos="58.40" from="np16_nt1" id="random109_64800" to="nt11_nt15" type="griddistrandom"/>
    <trip arrivalPos="25.90" depart="65313" departPos="95.99" from="nt16_nt12" id="random110_64800" to="nt16_nt15" type="griddistrandom"/>
    <trip arrivalPos="81.00" depart="65315" departPos="88.15" from="nt10_nt9" id="random111_64800" to="nt9_nt13" type="griddistrandom"/>
    <trip arrivalPos="117.43" depart="65317" departPos="70.54" from="nt13_nt9" id="random112_64800" to="nt10_nt14" type="griddistrandom"/>
    <trip arrivalPos="21.55" depart="65318" departPos="173.42" from="nt6_nt10" id="random113_64800" to="nt7_nt3" type="griddistrandom"/>
    <trip arrivalPos="166.01" depart="65327" departPos="11.33" from="np5_nt4" id="random114_64800" to="nt11_nt15" type="griddistrandom"/>
    <trip arrivalPos="94.04" depart="65330" departPos="37.23" from="np11_nt14" id="random115_64800" to="nt5_nt9" type="griddistrandom"/>
    <trip arrivalPos="14.69" depart="65336" departPos="34.16" from="np11_nt14" id="random116_64800" to="nt3_np3" type="griddistrandom"/>
    <trip arrivalPos="39.81" depart="65336" departPos="0.66" from="np11_nt14" id="random117_64800" to="nt15_np10" type="griddistrandom"/>
    <trip arrivalPos="43.72" depart="65340" departPos="121.95" from="nt5_nt6" id="random118_64800" to="nt3_nt7" type="griddistrandom"/>
    <trip arrivalPos="15.84" depart="65341" departPos="102.24" from="nt12_nt8" id="random119_64800" to="nt4_np5" type="griddistrandom"/>
    <trip arrivalPos="124.61" depart="65344" departPos="49.51" from="np8_nt16" id="random120_64800" to="nt10_nt11" type="griddistrandom"/>
    <trip arrivalPos="1.87" depart="65351" departPos="34.16" from="nt6_nt7" id="random121_64800" to="nt8_nt12" type="griddistrandom"/>
    <trip arrivalPos="167.97" depart="65353" departPos="142.86" from="nt10_nt9" id="random122_64800" to="nt8_nt7" type="griddistrandom"/>
    <trip arrivalPos="60.01" depart="65364" departPos="7.08" from="nt6_nt5" id="random123_64800" to="nt16_np9" type="griddistrandom"/>
    <trip arrivalPos="40.25" depart="65371" departPos="172.27" from="nt5_nt6" id="random124_64800" to="nt16_np8" type="griddistrandom"/>
    <trip arrivalPos="149.13" depart="65375" departPos="32.54" from="nt11_nt15" id="random125_64800" to="nt13_nt9" type="griddistrandom"/>
    <trip arrivalPos="31.71" depart="65375" departPos="167.83" from="nt8_nt4" id="random126_64800" to="nt13_nt9" type="griddistrandom"/>
    <trip arrivalPos="101.61" depart="65382" departPos="35.58" from="nt9_nt13" id="random127_64800" to="nt4_nt3" type="griddistrandom"/>
    <trip arrivalPos="140.17" depart="65396" departPos="22.19" from="np2_nt2" id="random128_64800" to="nt13_nt14" type="griddistrandom"/>
    <trip arrivalPos="121.45" depart="65397" departPos="16.02" from="nt7_nt8" id="random129_64800" to="nt3_nt4" type="griddistrandom"/>
    <trip arrivalPos="59.60" depart="65401" departPos="0.41" from="nt7_nt3" id="random130_64800" to="nt2_nt3" type="griddistrandom"/>
    <trip arrivalPos="33.93" depart="65404" departPos="33.14" from="np12_nt13" id="random131_64800" to="nt3_np3" type="griddistrandom"/>
    <trip arrivalPos="40.25" depart="65410" departPos="64.82" from="nt6_nt5" id="random132_64800" to="nt4_np4" type="griddistrandom"/>
    <trip arrivalPos="33.68" depart="65414" departPos="172.77" from="nt4_nt8" id="random133_64800" to="nt15_np10" type="griddistrandom"/>
    <trip arrivalPos="41.75" depart="65415" departPos="118.55" from="nt12_nt8" id="random134_64800" to="nt3_np3" type="griddistrandom"/>
    <trip arrivalPos="60.42" depart="65423" departPos="9.34" from="nt9_nt10" id="random135_64800" to="nt9_np14" type="griddistrandom"/>
    <trip arrivalPos="49.19" depart="65427" departPos="34.63" from="np13_nt13" id="random136_64800" to="nt13_nt9" type="griddistrandom"/>
    <trip arrivalPos="57.71" depart="65455" departPos="62.31" from="np13_nt13" id="random137_64800" to="nt4_nt8" type="griddistrandom"/>
    <trip arrivalPos="106.71" depart="65455" departPos="110.01" from="nt10_nt6" id="random138_64800" to="nt10_nt6" type="griddistrandom"/>
    <trip arrivalPos="5.05" depart="65465" departPos="55.19" from="nt12_nt16" id="random139_64800" to="nt5_nt1" type="griddistrandom"/>
    <trip arrivalPos="37.88" depart="65468" departPos="101.31" from="nt14_nt13" id="random140_64800" to="nt9_np14" type="griddistrandom"/>
    <trip arrivalPos="63.64" depart="65476" departPos="45.67" from="nt15_nt14" id="random141_64800" to="nt9_np14" type="griddistrandom"/>
    <trip arrivalPos="143.04" depart="65477" departPos="5.11" from="nt2_nt1" id="random142_64800" to="nt14_nt10" type="griddistrandom"/>
    <trip arrivalPos="62.71" depart="65480" departPos="136.37" from="nt5_nt1" id="random143_64800" to="nt16_nt12" type="griddistrandom"/>
    <trip arrivalPos="163.97" depart="65487" departPos="123.34" from="nt3_nt4" id="random144_64800" to="nt14_nt15" type="griddistrandom"/>
    <trip arrivalPos="35.36" depart="65488" departPos="38.74" from="np15_nt5" id="random145_64800" to="nt9_nt5" type="griddistrandom"/>
    <trip arrivalPos="100.11" depart="65492" departPos="24.68" from="np1_nt1" id="random146_64800" to="nt11_nt15" type="griddistrandom"/>
    <trip arrivalPos="95.65" depart="65499" departPos="182.17" from="nt7_nt8" id="random147_64800" to="nt4_nt3" type="griddistrandom"/>
    <trip arrivalPos="3.31" depart="65502" departPos="159.31" from="nt7_nt6" id="random148_64800" to="nt4_np4" type="griddistrandom"/>
    <trip arrivalPos="48.26" depart="65507" departPos="174.12" from="nt6_nt2" id="random149_64800" to="nt4_nt8" type="griddistrandom"/>
    <trip arrivalPos="14.44" depart="65513" departPos="26.90" from="nt1_nt2" id="random150_64800" to="nt8_np6" type="griddistrandom"/>
    <trip arrivalPos="112.09" depart="65515" departPos="9.79" from="np14_nt9" id="random151_64800" to="nt9_nt13" type="griddistrandom"/>
    <trip arrivalPos="51.76" depart="65520" departPos="43.37" from="nt10_nt6" id="random152_64800" to="nt15_np10" type="griddistrandom"/>
    <trip arrivalPos="88.16" depart="65537" departPos="75.80" from="nt4_nt8" id="random153_64800" to="nt11_nt15" type="griddistrandom"/>
    <trip arrivalPos="130.32" depart="65542" departPos="29.60" from="np13_nt13" id="random154_64800" to="nt5_nt9" type="griddistrandom"/>
    <trip arrivalPos="97.24" depart="65545" departPos="112.72" from="nt14_nt15" id="random155_64800" to="nt8_nt12" type="griddistrandom"/>
    <trip arrivalPos="141.73" depart="65556" departPos="81.42" from="nt7_nt3" id="random156_64800" to="nt5_nt6" type="griddistrandom"/>
    <trip arrivalPos="66.63" depart="65560" departPos="128.42" from="nt11_nt12" id="random157_64800" to="nt1_nt5" type="griddistrandom"/>
    <trip arrivalPos="79.98" depart="65568" departPos="114.08" from="nt6_nt10" id="random158_64800" to="nt12_nt16" type="griddistrandom"/>
    <trip arrivalPos="130.63" depart="65571" departPos="72.32" from="nt3_nt2" id="random159_64800" to="nt10_nt6" type="griddistrandom"/>
    <trip arrivalPos="2.22" depart="65578" departPos="50.38" from="np12_nt13" id="random160_64800" to="nt9_np14" type="griddistrandom"/>
    <trip arrivalPos="67.87" depart="65578" departPos="177.71" from="nt9_nt5" id="random161_64800" to="nt7_nt8" type="griddistrandom"/>
    <trip arrivalPos="87.30" depart="65581" departPos="146.90" from="nt8_nt4" id="random162_64800" to="nt11_nt15" type="griddistrandom"/>
    <trip arrivalPos="6.40" depart="65588" departPos="7.84" from="np2_nt2" id="random163_64800" to="nt11_nt12" type="griddistrandom"/>
    <trip arrivalPos="81.29" depart="65594" departPos="127.64" from="nt9_nt5" id="random164_64800" to="nt9_nt10" type="griddistrandom"/>
    <trip arrivalPos="42.05" depart="65595" departPos="181.59" from="nt2_nt3" id="random165_64800" to="nt6_nt5" type="griddistrandom"/>
    <trip arrivalPos="134.72" depart="65596" departPos="41.40" from="nt5_nt1" id="random166_64800" to="nt3_nt2" type="griddistrandom"/>
    <trip arrivalPos="25.64" depart="65599" departPos="6.23" from="nt11_nt12" id="random167_64800" to="nt14_np11" type="griddistrandom"/>
    <trip arrivalPos="10.61" depart="65610" departPos="118.16" from="nt6_nt2" id="random168_64800" to="nt11_nt12" type="griddistrandom"/>
    <trip arrivalPos="0.82" depart="65613" departPos="47.43" from="nt10_nt6" id="random169_64800" to="nt16_nt15" type="griddistrandom"/>
    <trip arrivalPos="143.65" depart="65621" departPos="142.52" from="nt1_nt2" id="random170_64800" to="nt11_nt7" type="griddistrandom"/>
    <trip arrivalPos="123.51" depart="65621" departPos="150.27" from="nt7_nt11" id="random171_64800" to="nt2_nt1" type="griddistrandom"/>
    <trip arrivalPos="158.02" depart="65625" departPos="134.44" from="nt11_nt12" id="random172_64800" to="nt7_nt3" type="griddistrandom"/>
    <trip arrivalPos="97.93" depart="65644" departPos="79.01" from="nt4_nt8" id="random173_64800" to="nt15_nt16" type="griddistrandom"/>
    <trip arrivalPos="58.47" depart="65651" departPos="184.06" from="nt5_nt6" id="random174_64800" to="nt7_nt8" type="griddistrandom"/>
    <trip arrivalPos="6.65" depart="65654" departPos="122.94" from="nt12_nt11" id="random175_64800" to="nt12_nt11" type="griddistrandom"/>
    <trip arrivalPos="149.38" depart="65663" departPos="156.98" from="nt11_nt10" id="random176_64800" to="nt7_nt3" type="griddistrandom"/>
    <trip arrivalPos="30.86" depart="65663" departPos="127.32" from="nt2_nt6" id="random177_64800" to="nt2_np2" type="griddistrandom"/>
    <trip arrivalPos="106.38" depart="65667" departPos="179.53" from="nt5_nt6" id="random178_64800" to="nt8_nt4" type="griddistrandom"/>
    <trip arrivalPos="132.63" depart="65668" departPos="6.80" from="np6_nt8" id="random179_64800" to="nt14_nt15" type="griddistrandom"/>
    <trip arrivalPos="148.61" depart="65679" departPos="64.60" from="nt10_nt9" id="random180_64800" to="nt16_nt12" type="griddistrandom"/>
    <trip arrivalPos="59.03" depart="65683" departPos="72.16" from="np10_nt15" id="random181_64800" to="nt16_nt15" type="griddistrandom"/>
    <trip arrivalPos="16.09" depart="65686" departPos="34.99" from="np10_nt15" id="random182_64800" to="nt2_nt6" type="griddistrandom"/>
    <trip arrivalPos="86.06" depart="65689" departPos="62.88" from="np2_nt2" id="random183_64800" to="nt6_nt2" type="griddistrandom"/>
    <trip arrivalPos="160.86" depart="65690" departPos="123.27" from="nt5_nt1" id="random184_64800" to="nt13_nt14" type="griddistrandom"/>
    <trip arrivalPos="36.21" depart="65693" departPos="65.76" from="nt9_nt5" id="random185_64800" to="nt4_np5" type="griddistrandom"/>
    <trip arrivalPos="28.49" depart="65698" departPos="47.01" from="np2_nt2" id="random186_64800" to="nt6_nt5" type="griddistrandom"/>
    <trip arrivalPos="59.35" depart="65703" departPos="35.85" from="nt5_nt9" id="random187_64800" to="nt9_nt10" type="griddistrandom"/>
    <trip arrivalPos="159.77" depart="65704" departPos="161.61" from="nt12_nt16" id="random188_64800" to="nt8_nt7" type="griddistrandom"/>
    <trip arrivalPos="88.76" depart="65709" departPos="81.47" from="nt11_nt7" id="random189_64800" to="nt14_nt13" type="griddistrandom"/>
    <trip arrivalPos="43.79" depart="65721" departPos="94.78" from="nt3_nt4" id="random190_64800" to="nt5_nt1" type="griddistrandom"/>
    <trip arrivalPos="9.85" depart="65724" departPos="119.46" from="nt2_nt6" id="random191_64800" to="nt1_np16" type="griddistrandom"/>
    <trip arrivalPos="54.17" depart="65733" departPos="150.87" from="nt4_nt3" id="random192_64800" to="nt6_nt5" type="griddistrandom"/>
    <trip arrivalPos="119.10" depart="65734" departPos="91.64" from="nt9_nt13" id="random193_64800" to="nt3_nt4" type="griddistrandom"/>
    <trip arrivalPos="71.51" depart="65736" departPos="114.73" from="nt16_nt12" id="random194_64800" to="nt9_nt5" type="griddistrandom"/>
    <trip arrivalPos="19.54" depart="65744" departPos="94.73" from="nt7_nt8" id="random195_64800" to="nt10_nt9" type="griddistrandom"/>
    <trip arrivalPos="157.52" depart="65766" departPos="47.94" from="np9_nt16" id="random196_64800" to="nt12_nt16" type="griddistrandom"/>
    <trip arrivalPos="4.74" depart="65768" departPos="100.26" from="nt12_nt8" id="random197_64800" to="nt16_np9" type="griddistrandom"/>
    <trip arrivalPos="76.39" depart="65768" departPos="16.65" from="np2_nt2" id="random198_64800" to="nt1_nt5" type="griddistrandom"/>
    <trip arrivalPos="58.26" depart="65770" departPos="165.57" from="nt9_nt10" id="random199_64800" to="nt15_nt16" type="griddistrandom"/>
    <trip arrivalPos="51.56" depart="65775" departPos="60.66" from="np9_nt16" id="random200_64800" to="nt9_np14" type="griddistrandom"/>
    <trip arrivalPos="69.75" depart="65788" departPos="27.84" from="np2_nt2" id="random201_64800" to="nt14_nt13" type="griddistrandom"/>
    <trip arrivalPos="44.63" depart="65795" departPos="119.33" from="nt5_nt9" id="random202_64800" to="nt16_np8" type="griddistrandom"/>
    <trip arrivalPos="48.64" depart="65797" departPos="175.36" from="nt3_nt2" id="random203_64800" to="nt16_np8" type="griddistrandom"/>
    <trip arrivalPos="40.35" depart="65798" departPos="84.37" from="nt7_nt8" id="random204_64800" to="nt12_nt11" type="griddistrandom"/>
    <trip arrivalPos="138.31" depart="65806" departPos="35.18" from="np4_nt4" id="random205_64800" to="nt6_nt5" type="griddistrandom"/>
    <trip arrivalPos="64.13" depart="65824" departPos="29.70" from="nt4_nt8" id="random206_64800" to="nt4_nt3" type="griddistrandom"/>
    <trip arrivalPos="50.64" depart="65828" departPos="25.83" from="nt8_nt12" id="random207_64800" to="nt10_nt9" type="griddistrandom"/>
    <trip arrivalPos="96.55" depart="65832" departPos="105.50" from="nt10_nt9" id="random208_64800" to="nt16_nt12" type="griddistrandom"/>
    <trip arrivalPos="112.72" depart="65834" departPos="169.29" from="nt3_nt7" id="random209_64800" to="nt7_nt3" type="griddistrandom"/>
    <trip arrivalPos="101.38" depart="65840" departPos="35.06" from="nt11_nt12" id="random210_64800" to="nt9_nt10" type="griddistrandom"/>
    <trip arrivalPos="87.95" depart="65846" departPos="85.58" from="nt5_nt9" id="random211_64800" to="nt16_nt15" type="griddistrandom"/>
    <trip arrivalPos="5.93" depart="65846" departPos="122.58" from="nt2_nt1" id="random212_64800" to="nt15_nt16" type="griddistrandom"/>
    <trip arrivalPos="17.52" depart="65848" departPos="62.52" from="np4_nt4" id="random213_64800" to="nt3_np3" type="griddistrandom"/>
    <trip arrivalPos="176.63" depart="65852" departPos="63.13" from="nt3_nt4" id="random214_64800" to="nt13_nt14" type="griddistrandom"/>
    <trip arrivalPos="59.05" depart="65854" departPos="45.81" from="nt11_nt12" id="random215_64800" to="nt14_np11" type="griddistrandom"/>
    <trip arrivalPos="25.45" depart="65857" departPos="38.40" from="nt10_nt14" id="random216_64800" to="nt10_nt11" type="griddistrandom"/>
    <trip arrivalPos="57.28" depart="65858" departPos="76.99" from="nt10_nt14" id="random217_64800" to="nt6_nt7" type="griddistrandom"/>
    <trip arrivalPos="21.19" depart="65859" departPos="154.12" from="nt10_nt11" id="random218_64800" to="nt3_nt2" type="griddistrandom"/>