<routes>
    <trip arrivalPos="87.22" depart="54005" departPos="97.84" from="nt13_nt9" id="random0_54000" to="nt13_nt9" type="griddistrandom"/>
    <trip arrivalPos="60.42" depart="54027" departPos="34.46" from="nt8_nt4" id="random1_54000" to="nt4_np4" type="griddistrandom"/>
    <trip arrivalPos="29.20" depart="54028" departPos="55.75" from="np4_nt4" id="random2_54000" to="nt8_np6" type="griddistrandom"/>
    <trip arrivalPos="158.62" depart="54036" departPos="3.82" from="np9_nt16" id="random3_54000" to="nt9_nt5" type="griddistrandom"/>
    <trip arrivalPos="111.33" depart="54037" departPos="124.71" from="nt6_nt10" id="random4_54000" to="nt9_nt10" type="griddistrandom"/>
    <trip arrivalPos="58.56" depart="54042" departPos="6.93" from="np2_nt2" id="random5_54000" to="nt8_np6" type="griddistrandom"/>
    <trip arrivalPos="92.73" depart="54046" departPos="22.18" from="np3_nt3" id="random6_54000" to="nt6_nt2" type="griddistrandom"/>
    <trip arrivalPos="46.04" depart="54048" departPos="61.94" from="nt11_nt15" id="random7_54000" to="nt13_np12" type="griddistrandom"/>
    <trip arrivalPos="146.09" depart="54050" departPos="172.39" from="nt4_nt3" id="random8_54000" to="nt2_nt1" type="griddistrandom"/>
    <trip arrivalPos="45.29" depart="54056" departPos="40.79" from="nt5_nt9" id="random9_54000" to="nt8_nt12" type="griddistrandom"/>
    <trip arrivalPos="73.54" depart="54075" departPos="40.94" from="np11_nt14" id="random10_54000" to="nt12_nt16" type="griddistrandom"/>
    <trip arrivalPos="116.08" depart="54083" departPos="176.74" from="nt10_nt6" id="random11_54000" to="nt10_nt9" type="griddistrandom"/>
    <trip arrivalPos="145.58" depart="54087" departPos="52.21" from="nt9_nt5" id="random12_54000" to="nt3_nt7" type="griddistrandom"/>
    <trip arrivalPos="60.08" depart="54089" departPos="46.72" from="np5_nt4" id="random13_54000" to="nt7_nt8" type="griddistrandom"/>
    <trip arrivalPos="66.41" depart="54096" departPos="139.25" from="nt5_nt1" id="random14_54000" to="nt16_nt15" type="griddistrandom"/>
    <trip arrivalPos="129.04" depart="54096" departPos="85.19" from="nt14_nt10" id="random15_54000" to="nt9_nt13" type="griddistrandom"/>
    <trip arrivalPos="57.90" depart="54105" departPos="2.27" from="np14_nt9" id="random16_54000" to="nt1_nt2" type="griddistrandom"/>
    <trip arrivalPos="116.16" depart="54107" departPos="97.50" from="nt5_nt1" id="random17_54000" to="nt10_nt9" type="griddistrandom"/>
    <trip arrivalPos="47.36" depart="54110" departPos="20.55" from="nt7_nt6" id="random18_54000" to="nt16_np8" type="griddistrandom"/>
    <trip arrivalPos="16.75" depart="54127" departPos="124.92" from="nt6_nt10" id="random19_54000" to="nt16_nt12" type="griddistrandom"/>
    <trip arrivalPos="56.46" depart="54128" departPos="6.03" from="np1_nt1" id="random20_54000" to="nt16_np8" type="griddistrandom"/>
    <trip arrivalPos="86.30" depart="54131" departPos="126.33" from="nt13_nt9" id="random21_54000" to="nt1_nt2" type="griddistrandom"/>
    <trip arrivalPos="109.54" depart="54135" departPos="78.34" from="nt6_nt2" id="random22_54000" to="nt10_nt9" type="griddistrandom"/>
    <trip arrivalPos="126.58" depart="54136" departPos="26.49" from="nt1_nt2" id="random23_54000" to="nt11_nt7" type="griddistrandom"/>
    <trip arrivalPos="160.25" depart="54141" departPos="160.67" from="nt8_nt7" id="random24_54000" to="nt13_nt14" type="griddistrandom"/>
    <trip arrivalPos="18.75" depart="54150" departPos="115.26" from="nt14_nt13" id="random25_54000" to="nt12_np7" type="griddistrandom"/>
    <trip arrivalPos="82.84" depart="54150" departPos="117.51" from="nt8_nt4" id="random26_54000" to="nt2_nt6" type="griddistrandom"/>
    <trip arrivalPos="151.78" depart="54157" departPos="40.35" from="np5_nt4" id="random27_54000" to="nt14_nt13" type="griddistrandom"/>
    <trip arrivalPos="48.80" depart="54159" departPos="3.70" from="np16_nt1" id="random28_54000" to="nt4_nt3" type="griddistrandom"/>
    <trip arrivalPos="44.31" depart="54164" departPos="103.06" from="nt11_nt10" id="random29_54000" to="nt10_nt6" type="griddistrandom"/>
    <trip arrivalPos="136.14" depart="54166" departPos="17.95" from="np15_nt5" id="random30_54000" to="nt2_nt1" type="griddistrandom"/>
    <trip arrivalPos="60.61" depart="54168" departPos="92.94" from="nt4_nt8" id="random31_54000" to="nt10_nt6" type="griddistrandom"/>
    <trip arrivalPos="129.44" depart="54168" departPos="136.82" from="nt14_nt15" id="random32_54000" to="nt9_nt13" type="griddistrandom"/>
    <trip arrivalPos="32.88" depart="54182" departPos="21.93" from="np8_nt16" id="random33_54000" to="nt8_nt4" type="griddistrandom"/>
    <trip arrivalPos="59.27" depart="54187" departPos="109.68" from="nt6_nt2" id="random34_54000" to="nt5_nt1" type="griddistrandom"/>
    <trip arrivalPos="46.79" depart="54194" departPos="113.94" from="nt7_nt6" id="random35_54000" to="nt3_np3" type="griddistrandom"/>
    <trip arrivalPos="54.13" depart="54199" departPos="37.48" from="nt6_nt5" id="random36_54000" to="nt12_nt11" type="griddistrandom"/>
    <trip arrivalPos="13.60" depart="54203" departPos="131.46" from="nt6_nt7" id="random37_54000" to="nt6_nt5" type="griddistrandom"/>
    <trip arrivalPos="36.48" depart="54219" departPos="142.43" from="nt5_nt6" id="random38_54000" to="nt7_nt11" type="griddistrandom"/>
    <trip arrivalPos="53.45" depart="54219" departPos="106.97" from="nt7_nt3" id="random39_54000" to="nt1_np1" type="griddistrandom"/>
    <trip arrivalPos="81.00" depart="54221" departPos="141.01" from="nt2_nt1" id="random40_54000" to="nt7_nt6" type="griddistrandom"/>
    <trip arrivalPos="42.60" depart="54225" departPos="6.16" from="nt6_nt5" id="random41_54000" to="nt13_np13" type="griddistrandom"/>
    <trip arrivalPos="65.96" depart="54227" departPos="18.30" from="np3_nt3" id="random42_54000" to="nt12_np7" type="griddistrandom"/>
    <trip arrivalPos="116.03" depart="54231" departPos="124.41" from="nt11_nt15" id="random43_54000" to="nt1_nt5" type="griddistrandom"/>
    <trip arrivalPos="34.20" depart="54235" departPos="89.53" from="nt11_nt10" id="random44_54000" to="nt1_np1" type="griddistrandom"/>
    <trip arrivalPos="95.21" depart="54239" departPos="16.21" from="nt7_nt8" id="random45_54000" to="nt9_nt10" type="griddistrandom"/>
    <trip arrivalPos="51.07" depart="54247" departPos="62.91" from="np6_nt8" id="random46_54000" to="nt13_np13" type="griddistrandom"/>
    <trip arrivalPos="48.14" depart="54249" departPos="159.85" from="nt9_nt5" id="random47_54000" to="nt12_np7" type="griddistrandom"/>
    <trip arrivalPos="13.92" depart="54253" departPos="137.11" from="nt12_nt16" id="random48_54000" to="nt13_np12" type="griddistrandom"/>
    <trip arrivalPos="91.16" depart="54254" departPos="4.85" from="np3_nt3" id="random49_54000" to="nt10_nt14" type="griddistrandom"/>
    <trip arrivalPos="55.64" depart="54256" departPos="8.14" from="nt9_nt5" id="random50_54000" to="nt4_np4" type="griddistrandom"/>
    <trip arrivalPos="13.66" depart="54265" departPos="24.53" from="nt5_nt9" id="random51_54000" to="nt11_nt7" type="griddistrandom"/>
    <trip arrivalPos="148.77" depart="54275" departPos="123.62" from="nt16_nt12" id="random52_54000" to="nt11_nt7" type="griddistrandom"/>
    <trip arrivalPos="68.52" depart="54276" departPos="105.73" from="nt9_nt5" id="random53_54000" to="nt12_nt16" type="griddistrandom"/>
    <trip arrivalPos="37.83" depart="54282" departPos="40.43" from="nt7_nt6" id="random54_54000" to="nt16_nt12" type="griddistrandom"/>
    <trip arrivalPos="57.49" depart="54290" departPos="133.29" from="nt9_nt10" id="random55_54000" to="nt11_nt7" type="griddistrandom"/>
    <trip arrivalPos="120.58" depart="54293" departPos="143.30" from="nt7_nt6" id="random56_54000" to="nt5_nt9" type="griddistrandom"/>
    <trip arrivalPos="69.79" depart="54294" departPos="182.14" from="nt11_nt10" id="random57_54000" to="nt16_nt12" type="griddistrandom"/>
    <trip arrivalPos="51.21" depart="54305" departPos="49.38" from="nt6_nt10" id="random58_54000" to="nt1_np1" type="griddistrandom"/>
    <trip arrivalPos="43.64" depart="54317" departPos="35.84" from="nt12_nt16" id="random59_54000" to="nt16_np8" type="griddistrandom"/>
    <trip arrivalPos="163.82" depart="54317" departPos="75.23" from="nt14_nt13" id="random60_54000" to="nt15_nt14" type="griddistrandom"/>
    <trip arrivalPos="25.16" depart="54319" departPos="76.43" from="nt15_nt11" id="random61_54000" to="nt14_nt13" type="griddistrandom"/>
    <trip arrivalPos="118.13" depart="54322" departPos="53.79" from="nt4_nt3" id="random62_54000" to="nt10_nt6" type="griddistrandom"/>
    <trip arrivalPos="3.98" depart="54329" departPos="11.68" from="nt13_nt14" id="random63_54000" to="nt8_nt4" type="griddistrandom"/>
    <trip arrivalPos="84.52" depart="54332" departPos="139.06" from="nt9_nt13" id="random64_54000" to="nt9_nt13" type="griddistrandom"/>
    <trip arrivalPos="6.99" depart="54332" departPos="158.75" from="nt14_nt13" id="random65_54000" to="nt8_np6" type="griddistrandom"/>
    <trip arrivalPos="81.95" depart="54334" departPos="23.66" from="nt10_nt6" id="random66_54000" to="nt4_nt3" type="griddistrandom"/>
    <trip arrivalPos="148.18" depart="54334" departPos="36.80" from="np13_nt13" id="random67_54000" to="nt5_nt1" type="griddistrandom"/>
    <trip arrivalPos="141.80" depart="54336" departPos="15.88" from="nt6_nt5" id="random68_54000" to="nt6_nt2" type="griddistrandom"/>
    <trip arrivalPos="46.66" depart="54339" departPos="143.53" from="nt8_nt4" id="random69_54000" to="nt11_nt7" type="griddistrandom"/>
    <trip arrivalPos="1.69" depart="54340" departPos="149.80" from="nt2_nt3" id="random70_54000" to="nt1_nt5" type="griddistrandom"/>
    <trip arrivalPos="29.85" depart="54350" departPos="151.76" from="nt10_nt9" id="random71_54000" to="nt9_np14" type="griddistrandom"/>
    <trip arrivalPos="44.91" depart="54355" departPos="172.24" from="nt12_nt8" id="random72_54000" to="nt5_nt1" type="griddistrandom"/>
    <trip arrivalPos="131.58" depart="54363" departPos="8.53" from="np15_nt5" id="random73_54000" to="nt2_nt6" type="griddistrandom"/>
    <trip arrivalPos="120.61" depart="54364" departPos="8.12" from="np3_nt3" id="random74_54000" to="nt4_nt8" type="griddistrandom"/>
    <trip arrivalPos="130.19" depart="54365" departPos="8.32" from="nt9_nt10" id="random75_54000" to="nt11_nt15" type="griddistrandom"/>
    <trip arrivalPos="54.37" depart="54368" departPos="109.02" from="nt6_nt2" id="random76_54000" to="nt4_np5" type="griddistrandom"/>
    <trip arrivalPos="154.87" depart="54368" departPos="135.99" from="nt1_nt5" id="random77_54000" to="nt4_nt3" type="griddistrandom"/>
    <trip arrivalPos="167.89" depart="54388" departPos="128.91" from="nt3_nt4" id="random78_54000" to="nt10_nt14" type="griddistrandom"/>
    <trip arrivalPos="34.50" depart="54397" departPos="119.43" from="nt11_nt10" id="random79_54000" to="nt3_np3" type="griddistrandom"/>
    <trip arrivalPos="58.70" depart="54402" departPos="87.83" from="nt10_nt11" id="random80_54000" to="nt15_nt14" type="griddistrandom"/>
    <trip arrivalPos="57.55" depart="54404" departPos="99.37" from="nt13_nt14" id="random81_54000" to="nt7_nt3" type="griddistrandom"/>
    <trip arrivalPos="20.61" depart="54413" departPos="19.09" from="nt3_nt4" id="random82_54000" to="nt9_nt5" type="griddistrandom"/>
    <trip arrivalPos="30.28" depart="54415" departPos="168.67" from="nt9_nt13" id="random83_54000" to="nt14_nt15" type="griddistrandom"/>
    <trip arrivalPos="140.50" depart="54415" departPos="63.91" from="nt5_nt9" id="random84_54000" to="nt12_nt11" type="griddistrandom"/>
    <trip arrivalPos="51.66" depart="54417" departPos="10.44" from="np8_nt16" id="random85_54000" to="nt1_np16" type="griddistrandom"/>
    <trip arrivalPos="53.15" depart="54420" departPos="144.14" from="nt11_nt15" id="random86_54000" to="nt13_np12" type="griddistrandom"/>
    <trip arrivalPos="106.82" depart="54435" departPos="19.40" from="nt16_nt15" id="random87_54000" to="nt6_nt2" type="griddistrandom"/>
    <trip arrivalPos="70.56" depart="54436" departPos="171.54" from="nt11_nt10" id="random88_54000" to="nt4_np5" type="griddistrandom"/>
    <trip arrivalPos="157.76" depart="54439" departPos="83.38" from="nt6_nt2" id="random89_54000" to="nt8_nt4" type="griddistrandom"/>
    <trip arrivalPos="153.97" depart="54441" departPos="152.36" from="nt15_nt11" id="random90_54000" to="nt8_nt7" type="griddistrandom"/>
    <trip arrivalPos="92.44" depart="54446" departPos="14.13" from="nt1_nt5" id="random91_54000" to="nt10_nt6" type="griddistrandom"/>
    <trip arrivalPos="13.24" depart="54447" departPos="48.35" from="nt5_nt1" id="random92_54000" to="nt2_np2" type="griddistrandom"/>
    <trip arrivalPos="108.82" depart="54448" departPos="29.72" from="np10_nt15" id="random93_54000" to="nt3_nt2" type="griddistrandom"/>
    <trip arrivalPos="9.47" depart="54449" departPos="11.50" from="np15_nt5" id="random94_54000" to="nt1_np16" type="griddistrandom"/>
    <trip arrivalPos="48.32" depart="54450" departPos="4.68" from="nt10_nt9" id="random95_54000" to="nt11_nt12" type="griddistrandom"/>
    <trip arrivalPos="49.49" depart="54453" departPos="53.50" from="nt2_nt3" id="random96_54000" to="nt6_nt2" type="griddistrandom"/>
    <trip arrivalPos="107.43" depart="54455" departPos="95.74" from="nt13_nt14" id="random97_54000" to="nt3_nt7" type="griddistrandom"/>
    <trip arrivalPos="15.72" depart="54456" departPos="41.03" from="np13_nt13" id="random98_54000" to="nt4_np5" type="griddistrandom"/>
    <trip arrivalPos="4.87" depart="54457" departPos="93.72" from="nt3_nt2" id="random99_54000" to="nt7_nt6" type="griddistrandom"/>
    <trip arrivalPos="58.89" depart="54458" departPos="23.75" from="np5_nt4" id="random100_54000" to="nt11_nt12" type="griddistrandom"/>
    <trip arrivalPos="4.91" depart="54461" departPos="70.70" from="nt2_nt1" id="random101_54000" to="nt3_nt2" type="griddistrandom"/>
    <trip arrivalPos="106.85" depart="54465" departPos="55.24" from="np7_nt12" id="random102_54000" to="nt6_nt2" type="griddistrandom"/>
    <trip arrivalPos="39.17" depart="54472" departPos="25.02" from="nt12_nt11" id="random103_54000" to="nt15_nt14" type="griddistrandom"/>
    <trip arrivalPos="24.89" depart="54472" departPos="51.90" from="np1_nt1" id="random104_54000" to="nt5_np15" type="griddistrandom"/>
    <trip arrivalPos="59.40" depart="54473" departPos="141.12" from="nt11_nt15" id="random105_54000" to="nt16_np8" type="griddistrandom"/>
    <trip arrivalPos="18.03" depart="54473" departPos="41.35" from="np15_nt5" id="random106_54000" to="nt16_nt15" type="griddistrandom"/>
    <trip arrivalPos="88.48" depart="54479" departPos="46.84" from="nt11_nt12" id="random107_54000" to="nt11_nt7" type="griddistrandom"/>
    <trip arrivalPos="112.52" depart="54486" departPos="19.16" from="np9_nt16" id="random108_54000" to="nt7_nt6" type="griddistrandom"/>
    <trip arrivalPos="16.30" depart="54498" departPos="58.40" from="np16_nt1" id="random109_54000" to="nt11_nt15" type="griddistrandom"/>
    <trip arrivalPos="25.90" depart="54513" departPos="95.99" from="nt16_nt12" id="random110_54000" to="nt16_nt15" type="griddistrandom"/>
    <trip arrivalPos="81.00" depart="54515" departPos="88.15" from="nt10_nt9" id="random111_54000" to="nt9_nt13" type="griddistrandom"/>
    <trip arrivalPos="117.43" depart="54517" departPos="70.54" from="nt13_nt9" id="random112_54000" to="nt10_nt14" type="griddistrandom"/>
    <trip arrivalPos="21.55" depart="54518" departPos="173.42" from="nt6_nt10" id="random113_54000" to="nt7_nt3" type="griddistrandom"/>
    <trip arrivalPos="166.01" depart="54527" departPos="11.33" from="np5_nt4" id="random114_54000" to="nt11_nt15" type="griddistrandom"/>
    <trip arrivalPos="94.04" depart="54530" departPos="37.23" from="np11_nt14" id="random115_54000" to="nt5_nt9" type="griddistrandom"/>
    <trip arrivalPos="14.69" depart="54536" departPos="34.16" from="np11_nt14" id="random116_54000" to="nt3_np3" type="griddistrandom"/>
    <trip arrivalPos="39.81" depart="54536" departPos="0.66" from="np11_nt14" id="random117_54000" to="nt15_np10" type="griddistrandom"/>
    <trip arrivalPos="43.72" depart="54540" departPos="121.95" from="nt5_nt6" id="random118_54000" to="nt3_nt7" type="griddistrandom"/>
    <trip arrivalPos="15.84" depart="54541" departPos="102.24" from="nt12_nt8" id="random119_54000" to="nt4_np5" type="griddistrandom"/>
    <trip arrivalPos="124.61" depart="54544" departPos="49.51" from="np8_nt16" id="random120_54000" to="nt10_nt11" type="griddistrandom"/>
    <trip arrivalPos="1.87" depart="54551" departPos="34.16" from="nt6_nt7" id="random121_54000" to="nt8_nt12" type="griddistrandom"/>
    <trip arrivalPos="167.97" depart="54553" departPos="142.86" from="nt10_nt9" id="random122_54000" to="nt8_nt7" type="griddistrandom"/>
    <trip arrivalPos="60.01" depart="54564" departPos="7.08" from="nt6_nt5" id="random123_54000" to="nt16_np9" type="griddistrandom"/>
    <trip arrivalPos="40.25" depart="54571" departPos="172.27" from="nt5_nt6" id="random124_54000" to="nt16_np8" type="griddistrandom"/>
    <trip arrivalPos="149.13" depart="54575" departPos="32.54" from="nt11_nt15" id="random125_54000" to="nt13_nt9" type="griddistrandom"/>
    <trip arrivalPos="31.71" depart="54575" departPos="167.83" from="nt8_nt4" id="random126_54000" to="nt13_nt9" type="griddistrandom"/>
    <trip arrivalPos="101.61" depart="54582" departPos="35.58" from="nt9_nt13" id="random127_54000" to="nt4_nt3" type="griddistrandom"/>
    <trip arrivalPos="140.17" depart="54596" departPos="22.19" from="np2_nt2" id="random128_54000" to="nt13_nt14" type="griddistrandom"/>
    <trip arrivalPos="121.45" depart="54597" departPos="16.02" from="nt7_nt8" id="random129_54000" to="nt3_nt4" type="griddistrandom"/>
    <trip arrivalPos="59.60" depart="54601" departPos="0.41" from="nt7_nt3" id="random130_54000" to="nt2_nt3" type="griddistrandom"/>
    <trip arrivalPos="33.93" depart="54604" departPos="33.14" from="np12_nt13" id="random131_54000" to="nt3_np3" type="griddistrandom"/>
    <trip arrivalPos="40.25" depart="54610" departPos="64.82" from="nt6_nt5" id="random132_54000" to="nt4_np4" type="griddistrandom"/>
    <trip arrivalPos="33.68" depart="54614" departPos="172.77" from="nt4_nt8" id="random133_54000" to="nt15_np10" type="griddistrandom"/>
    <trip arrivalPos="41.75" depart="54615" departPos="118.55" from="nt12_nt8" id="random134_54000" to="nt3_np3" type="griddistrandom"/>
    <trip arrivalPos="60.42" depart="54623" departPos="9.34" from="nt9_nt10" id="random135_54000" to="nt9_np14" type="griddistrandom"/>
    <trip arrivalPos="49.19" depart="54627" departPos="34.63" from="np13_nt13" id="random136_54000" to="nt13_nt9" type="griddistrandom"/>
    <trip arrivalPos="57.71" depart="54655" departPos="62.31" from="np13_nt13" id="random137_54000" to="nt4_nt8" type="griddistrandom"/>
    <trip arrivalPos="106.71" depart="54655" departPos="110.01" from="nt10_nt6" id="random138_54000" to="nt10_nt6" type="griddistrandom"/>
    <trip arrivalPos="5.05" depart="54665" departPos="55.19" from="nt12_nt16" id="random139_54000" to="nt5_nt1" type="griddistrandom"/>
    <trip arrivalPos="37.88" depart="54668" departPos="101.31" from="nt14_nt13" id="random140_54000" to="nt9_np14" type="griddistrandom"/>
    <trip arrivalPos="63.64" depart="54676" departPos="45.67" from="nt15_nt14" id="random141_54000" to="nt9_np14" type="griddistrandom"/>
    <trip arrivalPos="143.04" depart="54677" departPos="5.11" from="nt2_nt1" id="random142_54000" to="nt14_nt10" type="griddistrandom"/>
    <trip arrivalPos="62.71" depart="54680" departPos="136.37" from="nt5_nt1" id="random143_54000" to="nt16_nt12" type="griddistrandom"/>
    <trip arrivalPos="163.97" depart="54687" departPos="123.34" from="nt3_nt4" id="random144_54000" to="nt14_nt15" type="griddistrandom"/>
    <trip arrivalPos="35.36" depart="54688" departPos="38.74" from="np15_nt5" id="random145_54000" to="nt9_nt5" type="griddistrandom"/>
    <trip arrivalPos="100.11" depart="54692" departPos="24.68" from="np1_nt1" id="random146_54000" to="nt11_nt15" type="griddistrandom"/>
    <trip arrivalPos="95.65" depart="54699" departPos="182.17" from="nt7_nt8" id="random147_54000" to="nt4_nt3" type="griddistrandom"/>
    <trip arrivalPos="3.31" depart="54702" departPos="159.31" from="nt7_nt6" id="random148_54000" to="nt4_np4" type="griddistrandom"/>
    <trip arrivalPos="48.26" depart="54707" departPos="174.12" from="nt6_nt2" id="random149_54000" to="nt4_nt8" type="griddistrandom"/>
    <trip arrivalPos="14.44" depart="54713" departPos="26.90" from="nt1_nt2" id="random150_54000" to="nt8_np6" type="griddistrandom"/>
    <trip arrivalPos="112.09" depart="54715" departPos="9.79" from="np14_nt9" id="random151_54000" to="nt9_nt13" type="griddistrandom"/>
    <trip arrivalPos="51.76" depart="54720" departPos="43.37" from="nt10_nt6" id="random152_54000" to="nt15_np10" type="griddistrandom"/>
    <trip arrivalPos="88.16" depart="54737" departPos="75.80" from="nt4_nt8" id="random153_54000" to="nt11_nt15" type="griddistrandom"/>
    <trip arrivalPos="130.32" depart="54742" departPos="29.60" from="np13_nt13" id="random154_54000" to="nt5_nt9" type="griddistrandom"/>
    <trip arrivalPos="97.24" depart="54745" departPos="112.72" from="nt14_nt15" id="random155_54000" to="nt8_nt12" type="griddistrandom"/>
    <trip arrivalPos="141.73" depart="54756" departPos="81.42" from="nt7_nt3" id="random156_54000" to="nt5_nt6" type="griddistrandom"/>
    <trip arrivalPos="66.63" depart="54760" departPos="128.42" from="nt11_nt12" id="random157_54000" to="nt1_nt5" type="griddistrandom"/>
    <trip arrivalPos="79.98" depart="54768" departPos="114.08" from="nt6_nt10" id="random158_54000" to="nt12_nt16" type="griddistrandom"/>
    <trip arrivalPos="130.63" depart="54771" departPos="72.32" from="nt3_nt2" id="random159_54000" to="nt10_nt6" type="griddistrandom"/>
    <trip arrivalPos="2.22" depart="54778" departPos="50.38" from="np12_nt13" id="random160_54000" to="nt9_np14" type="griddistrandom"/>
    <trip arrivalPos="67.87" depart="54778" departPos="177.71" from="nt9_nt5" id="random161_54000" to="nt7_nt8" type="griddistrandom"/>
    <trip arrivalPos="87.30" depart="54781" departPos="146.90" from="nt8_nt4" id="random162_54000" to="nt11_nt15" type="griddistrandom"/>
    <trip arrivalPos="6.40" depart="54788" departPos="7.84" from="np2_nt2" id="random163_54000" to="nt11_nt12" type="griddistrandom"/>
    <trip arrivalPos="81.29" depart="54794" departPos="127.64" from="nt9_nt5" id="random164_54000" to="nt9_nt10" type="griddistrandom"/>
    <trip arrivalPos="42.05" depart="54795" departPos="181.59" from="nt2_nt3" id="random165_54000" to="nt6_nt5" type="griddistrandom"/>
    <trip arrivalPos="134.72" depart="54796" departPos="41.40" from="nt5_nt1" id="random166_54000" to="nt3_nt2" type="griddistrandom"/>
    <trip arrivalPos="25.64" depart="54799" departPos="6.23" from="nt11_nt12" id="random167_54000" to="nt14_np11" type="griddistrandom"/>
    <trip arrivalPos="10.61" depart="54810" departPos="118.16" from="nt6_nt2" id="random168_54000" to="nt11_nt12" type="griddistrandom"/>
    <trip arrivalPos="0.82" depart="54813" departPos="47.43" from="nt10_nt6" id="random169_54000" to="nt16_nt15" type="griddistrandom"/>
    <trip arrivalPos="143.65" depart="54821" departPos="142.52" from="nt1_nt2" id="random170_54000" to="nt11_nt7" type="griddistrandom"/>
    <trip arrivalPos="123.51" depart="54821" departPos="150.27" from="nt7_nt11" id="random171_54000" to="nt2_nt1" type="griddistrandom"/>
    <trip arrivalPos="158.02" depart="54825" departPos="134.44" from="nt11_nt12" id="random172_54000" to="nt7_nt3" type="griddistrandom"/>
    <trip arrivalPos="97.93" depart="54844" departPos="79.01" from="nt4_nt8" id="random173_54000" to="nt15_nt16" type="griddistrandom"/>
    <trip arrivalPos="58.47" depart="54851" departPos="184.06" from="nt5_nt6" id="random174_54000" to="nt7_nt8" type="griddistrandom"/>
    <trip arrivalPos="6.65" depart="54854" departPos="122.94" from="nt12_nt11" id="random175_54000" to="nt12_nt11" type="griddistrandom"/>
    <trip arrivalPos="149.38" depart="54863" departPos="156.98" from="nt11_nt10" id="random176_54000" to="nt7_nt3" type="griddistrandom"/>
    <trip arrivalPos="30.86" depart="54863" departPos="127.32" from="nt2_nt6" id="random177_54000" to="nt2_np2" type="griddistrandom"/>
    <trip arrivalPos="106.38" depart="54867" departPos="179.53" from="nt5_nt6" id="random178_54000" to="nt8_nt4" type="griddistrandom"/>
    <trip arrivalPos="132.63" depart="54868" departPos="6.80" from="np6_nt8" id="random179_54000" to="nt14_nt15" type="griddistrandom"/>
    <trip arrivalPos="148.61" depart="54879" departPos="64.60" from="nt10_nt9" id="random180_54000" to="nt16_nt12" type="griddistrandom"/>
    <trip arrivalPos="59.03" depart="54883" departPos="72.16" from="np10_nt15" id="random181_54000" to="nt16_nt15" type="griddistrandom"/>
    <trip arrivalPos="16.09" depart="54886" departPos="34.99" from="np10_nt15" id="random182_54000" to="nt2_nt6" type="griddistrandom"/>
    <trip arrivalPos="86.06" depart="54889" departPos="62.88" from="np2_nt2" id="random183_54000" to="nt6_nt2" type="griddistrandom"/>
    <trip arrivalPos="160.86" depart="54890" departPos="123.27" from="nt5_nt1" id="random184_54000" to="nt13_nt14" type="griddistrandom"/>
    <trip arrivalPos="36.21" depart="54893" departPos="65.76" from="nt9_nt5" id="random185_54000" to="nt4_np5" type="griddistrandom"/>
    <trip arrivalPos="28.49" depart="54898" departPos="47.01" from="np2_nt2" id="random186_54000" to="nt6_nt5" type="griddistrandom"/>
    <trip arrivalPos="59.35" depart="54903" departPos="35.85" from="nt5_nt9" id="random187_54000" to="nt9_nt10" type="griddistrandom"/>
    <trip arrivalPos="159.77" depart="54904" departPos="161.61" from="nt12_nt16" id="random188_54000" to="nt8_nt7" type="griddistrandom"/>
    <trip arrivalPos="88.76" depart="54909" departPos="81.47" from="nt11_nt7" id="random189_54000" to="nt14_nt13" type="griddistrandom"/>
    <trip arrivalPos="43.79" depart="54921" departPos="94.78" from="nt3_nt4" id="random190_54000" to="nt5_nt1" type="griddistrandom"/>
    <trip arrivalPos="9.85" depart="54924" departPos="119.46" from="nt2_nt6" id="random191_54000" to="nt1_np16" type="griddistrandom"/>
    <trip arrivalPos="54.17" depart="54933" departPos="150.87" from="nt4_nt3" id="random192_54000" to="nt6_nt5" type="griddistrandom"/>
    <trip arrivalPos="119.10" depart="54934" departPos="91.64" from="nt9_nt13" id="random193_54000" to="nt3_nt4" type="griddistrandom"/>
    <trip arrivalPos="71.51" depart="54936" departPos="114.73" from="nt16_nt12" id="random194_54000" to="nt9_nt5" type="griddistrandom"/>
    <trip arrivalPos="19.54" depart="54944" departPos="94.73" from="nt7_nt8" id="random195_54000" to="nt10_nt9" type="griddistrandom"/>
    <trip arrivalPos="157.52" depart="54966" departPos="47.94" from="np9_nt16" id="random196_54000" to="nt12_nt16" type="griddistrandom"/>
    <trip arrivalPos="4.74" depart="54968" departPos="100.26" from="nt12_nt8" id="random197_54000" to="nt16_np9" type="griddistrandom"/>
    <trip arrivalPos="76.39" depart="54968" departPos="16.65" from="np2_nt2" id="random198_54000" to="nt1_nt5" type="griddistrandom"/>
    <trip arrivalPos="58.26" depart="54970" departPos="165.57" from="nt9_nt10" id="random199_54000" to="nt15_nt16" type="griddistrandom"/>
    <trip arrivalPos="51.56" depart="54975" departPos="60.66" from="np9_nt16" id="random200_54000" to="nt9_np14" type="griddistrandom"/>
    <trip arrivalPos="69.75" depart="54988" departPos="27.84" from="np2_nt2" id="random201_54000" to="nt14_nt13" type="griddistrandom"/>
    <trip arrivalPos="44.63" depart="54995" departPos="119.33" from="nt5_nt9" id="random202_54000" to="nt16_np8" type="griddistrandom"/>
    <trip arrivalPos="48.64" depart="54997" departPos="175.36" from="nt3_nt2" id="random203_54000" to="nt16_np8" type="griddistrandom"/>
    <trip arrivalPos="40.35" depart="54998" departPos="84.37" from="nt7_nt8" id="random204_54000" to="nt12_nt11" type="griddistrandom"/>
    <trip arrivalPos="138.31" depart="55006" departPos="35.18" from="np4_nt4" id="random205_54000" to="nt6_nt5" type="griddistrandom"/>
    <trip arrivalPos="64.13" depart="55024" departPos="29.70" from="nt4_nt8" id="random206_54000" to="nt4_nt3" type="griddistrandom"/>
    <trip arrivalPos="50.64" depart="55028" departPos="25.83" from="nt8_nt12" id="random207_54000" to="nt10_nt9" type="griddistrandom"/>
    <trip arrivalPos="96.55" depart="55032" departPos="105.50" from="nt10_nt9" id="random208_54000" to="nt16_nt12" type="griddistrandom"/>
    <trip arrivalPos="112.72" depart="55034" departPos="169.29" from="nt3_nt7" id="random209_54000" to="nt7_nt3" type="griddistrandom"/>
    <trip arrivalPos="101.38" depart="55040" departPos="35.06" from="nt11_nt12" id="random210_54000" to="nt9_nt10" type="griddistrandom"/>
    <trip arrivalPos="87.95" depart="55046" departPos="85.58" from="nt5_nt9" id="random211_54000" to="nt16_nt15" type="griddistrandom"/>
    <trip arrivalPos="5.93" depart="55046" departPos="122.58" from="nt2_nt1" id="random212_54000" to="nt15_nt16" type="griddistrandom"/>
    <trip arrivalPos="17.52" depart="55048" departPos="62.52" from="np4_nt4" id="random213_54000" to="nt3_np3" type="griddistrandom"/>
    <trip arrivalPos="176.63" depart="55052" departPos="63.13" from="nt3_nt4" id="random214_54000" to="nt13_nt14" type="griddistrandom"/>
    <trip arrivalPos="59.05" depart="55054" departPos="45.81" from="nt11_nt12" id="random215_54000" to="nt14_np11" type="griddistrandom"/>
    <trip arrivalPos="25.45" depart="55057" departPos="38.40" from="nt10_nt14" id="random216_54000" to="nt10_nt11" type="griddistrandom"/>
    <trip arrivalPos="57.28" depart="55058" departPos="76.99" from="nt10_nt14" id="random217_54000" to="nt6_nt7" type="griddistrandom"/>
    <trip arrivalPos="21.19" depart="55059" departPos="154.12" from="nt10_nt11" id="random218_54000" to="nt3_nt2" type="griddistrandom"/>