<routes>
    <trip arrivalPos="87.22" depart="39605" departPos="97.84" from="nt13_nt9" id="random0_39600" to="nt13_nt9" type="griddistrandom"/>
    <trip arrivalPos="60.42" depart="39627" departPos="34.46" from="nt8_nt4" id="random1_39600" to="nt4_np4" type="griddistrandom"/>
    <trip arrivalPos="29.20" depart="39628" departPos="55.75" from="np4_nt4" id="random2_39600" to="nt8_np6" type="griddistrandom"/>
    <trip arrivalPos="158.62" depart="39636" departPos="3.82" from="np9_nt16" id="random3_39600" to="nt9_nt5" type="griddistrandom"/>
    <trip arrivalPos="111.33" depart="39637" departPos="124.71" from="nt6_nt10" id="random4_39600" to="nt9_nt10" type="griddistrandom"/>
    <trip arrivalPos="58.56" depart="39642" departPos="6.93" from="np2_nt2" id="random5_39600" to="nt8_np6" type="griddistrandom"/>
    <trip arrivalPos="92.73" depart="39646" departPos="22.18" from="np3_nt3" id="random6_39600" to="nt6_nt2" type="griddistrandom"/>
    <trip arrivalPos="46.04" depart="39648" departPos="61.94" from="nt11_nt15" id="random7_39600" to="nt13_np12" type="griddistrandom"/>
    <trip arrivalPos="146.09" depart="39650" departPos="172.39" from="nt4_nt3" id="random8_39600" to="nt2_nt1" type="griddistrandom"/>
    <trip arrivalPos="45.29" depart="39656" departPos="40.79" from="nt5_nt9" id="random9_39600" to="nt8_nt12" type="griddistrandom"/>
    <trip arrivalPos="73.54" depart="39675" departPos="40.94" from="np11_nt14" id="random10_39600" to="nt12_nt16" type="griddistrandom"/>
    <trip arrivalPos="116.08" depart="39683" departPos="176.74" from="nt10_nt6" id="random11_39600" to="nt10_nt9" type="griddistrandom"/>
    <trip arrivalPos="145.58" depart="39687" departPos="52.21" from="nt9_nt5" id="random12_39600" to="nt3_nt7" type="griddistrandom"/>
    <trip arrivalPos="60.08" depart="39689" departPos="46.72" from="np5_nt4" id="random13_39600" to="nt7_nt8" type="griddistrandom"/>
    <trip arrivalPos="66.41" depart="39696" departPos="139.25" from="nt5_nt1" id="random14_39600" to="nt16_nt15" type="griddistrandom"/>
    <trip arrivalPos="129.04" depart="39696" departPos="85.19" from="nt14_nt10" id="random15_39600" to="nt9_nt13" type="griddistrandom"/>
    <trip arrivalPos="57.90" depart="39705" departPos="2.27" from="np14_nt9" id="random16_39600" to="nt1_nt2" type="griddistrandom"/>
    <trip arrivalPos="116.16" depart="39707" departPos="97.50" from="nt5_nt1" id="random17_39600" to="nt10_nt9" type="griddistrandom"/>
    <trip arrivalPos="47.36" depart="39710" departPos="20.55" from="nt7_nt6" id="random18_39600" to="nt16_np8" type="griddistrandom"/>
    <trip arrivalPos="16.75" depart="39727" departPos="124.92" from="nt6_nt10" id="random19_39600" to="nt16_nt12" type="griddistrandom"/>
    <trip arrivalPos="56.46" depart="39728" departPos="6.03" from="np1_nt1" id="random20_39600" to="nt16_np8" type="griddistrandom"/>
    <trip arrivalPos="86.30" depart="39731" departPos="126.33" from="nt13_nt9" id="random21_39600" to="nt1_nt2" type="griddistrandom"/>
    <trip arrivalPos="109.54" depart="39735" departPos="78.34" from="nt6_nt2" id="random22_39600" to="nt10_nt9" type="griddistrandom"/>
    <trip arrivalPos="126.58" depart="39736" departPos="26.49" from="nt1_nt2" id="random23_39600" to="nt11_nt7" type="griddistrandom"/>
    <trip arrivalPos="160.25" depart="39741" departPos="160.67" from="nt8_nt7" id="random24_39600" to="nt13_nt14" type="griddistrandom"/>
    <trip arrivalPos="18.75" depart="39750" departPos="115.26" from="nt14_nt13" id="random25_39600" to="nt12_np7" type="griddistrandom"/>
    <trip arrivalPos="82.84" depart="39750" departPos="117.51" from="nt8_nt4" id="random26_39600" to="nt2_nt6" type="griddistrandom"/>
    <trip arrivalPos="151.78" depart="39757" departPos="40.35" from="np5_nt4" id="random27_39600" to="nt14_nt13" type="griddistrandom"/>
    <trip arrivalPos="48.80" depart="39759" departPos="3.70" from="np16_nt1" id="random28_39600" to="nt4_nt3" type="griddistrandom"/>
    <trip arrivalPos="44.31" depart="39764" departPos="103.06" from="nt11_nt10" id="random29_39600" to="nt10_nt6" type="griddistrandom"/>
    <trip arrivalPos="136.14" depart="39766" departPos="17.95" from="np15_nt5" id="random30_39600" to="nt2_nt1" type="griddistrandom"/>
    <trip arrivalPos="60.61" depart="39768" departPos="92.94" from="nt4_nt8" id="random31_39600" to="nt10_nt6" type="griddistrandom"/>
    <trip arrivalPos="129.44" depart="39768" departPos="136.82" from="nt14_nt15" id="random32_39600" to="nt9_nt13" type="griddistrandom"/>
    <trip arrivalPos="32.88" depart="39782" departPos="21.93" from="np8_nt16" id="random33_39600" to="nt8_nt4" type="griddistrandom"/>
    <trip arrivalPos="59.27" depart="39787" departPos="109.68" from="nt6_nt2" id="random34_39600" to="nt5_nt1" type="griddistrandom"/>
    <trip arrivalPos="46.79" depart="39794" departPos="113.94" from="nt7_nt6" id="random35_39600" to="nt3_np3" type="griddistrandom"/>
    <trip arrivalPos="54.13" depart="39799" departPos="37.48" from="nt6_nt5" id="random36_39600" to="nt12_nt11" type="griddistrandom"/>
    <trip arrivalPos="13.60" depart="39803" departPos="131.46" from="nt6_nt7" id="random37_39600" to="nt6_nt5" type="griddistrandom"/>
    <trip arrivalPos="36.48" depart="39819" departPos="142.43" from="nt5_nt6" id="random38_39600" to="nt7_nt11" type="griddistrandom"/>
    <trip arrivalPos="53.45" depart="39819" departPos="106.97" from="nt7_nt3" id="random39_39600" to="nt1_np1" type="griddistrandom"/>
    <trip arrivalPos="81.00" depart="39821" departPos="141.01" from="nt2_nt1" id="random40_39600" to="nt7_nt6" type="griddistrandom"/>
    <trip arrivalPos="42.60" depart="39825" departPos="6.16" from="nt6_nt5" id="random41_39600" to="nt13_np13" type="griddistrandom"/>
    <trip arrivalPos="65.96" depart="39827" departPos="18.30" from="np3_nt3" id="random42_39600" to="nt12_np7" type="griddistrandom"/>
    <trip arrivalPos="116.03" depart="39831" departPos="124.41" from="nt11_nt15" id="random43_39600" to="nt1_nt5" type="griddistrandom"/>
    <trip arrivalPos="34.20" depart="39835" departPos="89.53" from="nt11_nt10" id="random44_39600" to="nt1_np1" type="griddistrandom"/>
    <trip arrivalPos="95.21" depart="39839" departPos="16.21" from="nt7_nt8" id="random45_39600" to="nt9_nt10" type="griddistrandom"/>
    <trip arrivalPos="51.07" depart="39847" departPos="62.91" from="np6_nt8" id="random46_39600" to="nt13_np13" type="griddistrandom"/>
    <trip arrivalPos="48.14" depart="39849" departPos="159.85" from="nt9_nt5" id="random47_39600" to="nt12_np7" type="griddistrandom"/>
    <trip arrivalPos="13.92" depart="39853" departPos="137.11" from="nt12_nt16" id="random48_39600" to="nt13_np12" type="griddistrandom"/>
    <trip arrivalPos="91.16" depart="39854" departPos="4.85" from="np3_nt3" id="random49_39600" to="nt10_nt14" type="griddistrandom"/>
    <trip arrivalPos="55.64" depart="39856" departPos="8.14" from="nt9_nt5" id="random50_39600" to="nt4_np4" type="griddistrandom"/>
    <trip arrivalPos="13.66" depart="39865" departPos="24.53" from="nt5_nt9" id="random51_39600" to="nt11_nt7" type="griddistrandom"/>
    <trip arrivalPos="148.77" depart="39875" departPos="123.62" from="nt16_nt12" id="random52_39600" to="nt11_nt7" type="griddistrandom"/>
    <trip arrivalPos="68.52" depart="39876" departPos="105.73" from="nt9_nt5" id="random53_39600" to="nt12_nt16" type="griddistrandom"/>
    <trip arrivalPos="37.83" depart="39882" departPos="40.43" from="nt7_nt6" id="random54_39600" to="nt16_nt12" type="griddistrandom"/>
    <trip arrivalPos="57.49" depart="39890" departPos="133.29" from="nt9_nt10" id="random55_39600" to="nt11_nt7" type="griddistrandom"/>
    <trip arrivalPos="120.58" depart="39893" departPos="143.30" from="nt7_nt6" id="random56_39600" to="nt5_nt9" type="griddistrandom"/>
    <trip arrivalPos="69.79" depart="39894" departPos="182.14" from="nt11_nt10" id="random57_39600" to="nt16_nt12" type="griddistrandom"/>
    <trip arrivalPos="51.21" depart="39905" departPos="49.38" from="nt6_nt10" id="random58_39600" to="nt1_np1" type="griddistrandom"/>
    <trip arrivalPos="43.64" depart="39917" departPos="35.84" from="nt12_nt16" id="random59_39600" to="nt16_np8" type="griddistrandom"/>
    <trip arrivalPos="163.82" depart="39917" departPos="75.23" from="nt14_nt13" id="random60_39600" to="nt15_nt14" type="griddistrandom"/>
    <trip arrivalPos="25.16" depart="39919" departPos="76.43" from="nt15_nt11" id="random61_39600" to="nt14_nt13" type="griddistrandom"/>
    <trip arrivalPos="118.13" depart="39922" departPos="53.79" from="nt4_nt3" id="random62_39600" to="nt10_nt6" type="griddistrandom"/>
    <trip arrivalPos="3.98" depart="39929" departPos="11.68" from="nt13_nt14" id="random63_39600" to="nt8_nt4" type="griddistrandom"/>
    <trip arrivalPos="84.52" depart="39932" departPos="139.06" from="nt9_nt13" id="random64_39600" to="nt9_nt13" type="griddistrandom"/>
    <trip arrivalPos="6.99" depart="39932" departPos="158.75" from="nt14_nt13" id="random65_39600" to="nt8_np6" type="griddistrandom"/>
    <trip arrivalPos="81.95" depart="39934" departPos="23.66" from="nt10_nt6" id="random66_39600" to="nt4_nt3" type="griddistrandom"/>
    <trip arrivalPos="148.18" depart="39934" departPos="36.80" from="np13_nt13" id="random67_39600" to="nt5_nt1" type="griddistrandom"/>
    <trip arrivalPos="141.80" depart="39936" departPos="15.88" from="nt6_nt5" id="random68_39600" to="nt6_nt2" type="griddistrandom"/>
    <trip arrivalPos="46.66" depart="39939" departPos="143.53" from="nt8_nt4" id="random69_39600" to="nt11_nt7" type="griddistrandom"/>
    <trip arrivalPos="1.69" depart="39940" departPos="149.80" from="nt2_nt3" id="random70_39600" to="nt1_nt5" type="griddistrandom"/>
    <trip arrivalPos="29.85" depart="39950" departPos="151.76" from="nt10_nt9" id="random71_39600" to="nt9_np14" type="griddistrandom"/>
    <trip arrivalPos="44.91" depart="39955" departPos="172.24" from="nt12_nt8" id="random72_39600" to="nt5_nt1" type="griddistrandom"/>
    <trip arrivalPos="131.58" depart="39963" departPos="8.53" from="np15_nt5" id="random73_39600" to="nt2_nt6" type="griddistrandom"/>
    <trip arrivalPos="120.61" depart="39964" departPos="8.12" from="np3_nt3" id="random74_39600" to="nt4_nt8" type="griddistrandom"/>
    <trip arrivalPos="130.19" depart="39965" departPos="8.32" from="nt9_nt10" id="random75_39600" to="nt11_nt15" type="griddistrandom"/>
    <trip arrivalPos="54.37" depart="39968" departPos="109.02" from="nt6_nt2" id="random76_39600" to="nt4_np5" type="griddistrandom"/>
    <trip arrivalPos="154.87" depart="39968" departPos="135.99" from="nt1_nt5" id="random77_39600" to="nt4_nt3" type="griddistrandom"/>
    <trip arrivalPos="167.89" depart="39988" departPos="128.91" from="nt3_nt4" id="random78_39600" to="nt10_nt14" type="griddistrandom"/>
    <trip arrivalPos="34.50" depart="39997" departPos="119.43" from="nt11_nt10" id="random79_39600" to="nt3_np3" type="griddistrandom"/>
    <trip arrivalPos="58.70" depart="40002" departPos="87.83" from="nt10_nt11" id="random80_39600" to="nt15_nt14" type="griddistrandom"/>
    <trip arrivalPos="57.55" depart="40004" departPos="99.37" from="nt13_nt14" id="random81_39600" to="nt7_nt3" type="griddistrandom"/>
    <trip arrivalPos="20.61" depart="40013" departPos="19.09" from="nt3_nt4" id="random82_39600" to="nt9_nt5" type="griddistrandom"/>
    <trip arrivalPos="30.28" depart="40015" departPos="168.67" from="nt9_nt13" id="random83_39600" to="nt14_nt15" type="griddistrandom"/>
    <trip arrivalPos="140.50" depart="40015" departPos="63.91" from="nt5_nt9" id="random84_39600" to="nt12_nt11" type="griddistrandom"/>
    <trip arrivalPos="51.66" depart="40017" departPos="10.44" from="np8_nt16" id="random85_39600" to="nt1_np16" type="griddistrandom"/>
    <trip arrivalPos="53.15" depart="40020" departPos="144.14" from="nt11_nt15" id="random86_39600" to="nt13_np12" type="griddistrandom"/>
    <trip arrivalPos="106.82" depart="40035" departPos="19.40" from="nt16_nt15" id="random87_39600" to="nt6_nt2" type="griddistrandom"/>
    <trip arrivalPos="70.56" depart="40036" departPos="171.54" from="nt11_nt10" id="random88_39600" to="nt4_np5" type="griddistrandom"/>
    <trip arrivalPos="157.76" depart="40039" departPos="83.38" from="nt6_nt2" id="random89_39600" to="nt8_nt4" type="griddistrandom"/>
    <trip arrivalPos="153.97" depart="40041" departPos="152.36" from="nt15_nt11" id="random90_39600" to="nt8_nt7" type="griddistrandom"/>
    <trip arrivalPos="92.44" depart="40046" departPos="14.13" from="nt1_nt5" id="random91_39600" to="nt10_nt6" type="griddistrandom"/>
    <trip arrivalPos="13.24" depart="40047" departPos="48.35" from="nt5_nt1" id="random92_39600" to="nt2_np2" type="griddistrandom"/>
    <trip arrivalPos="108.82" depart="40048" departPos="29.72" from="np10_nt15" id="random93_39600" to="nt3_nt2" type="griddistrandom"/>
    <trip arrivalPos="9.47" depart="40049" departPos="11.50" from="np15_nt5" id="random94_39600" to="nt1_np16" type="griddistrandom"/>
    <trip arrivalPos="48.32" depart="40050" departPos="4.68" from="nt10_nt9" id="random95_39600" to="nt11_nt12" type="griddistrandom"/>
    <trip arrivalPos="49.49" depart="40053" departPos="53.50" from="nt2_nt3" id="random96_39600" to="nt6_nt2" type="griddistrandom"/>
    <trip arrivalPos="107.43" depart="40055" departPos="95.74" from="nt13_nt14" id="random97_39600" to="nt3_nt7" type="griddistrandom"/>
    <trip arrivalPos="15.72" depart="40056" departPos="41.03" from="np13_nt13" id="random98_39600" to="nt4_np5" type="griddistrandom"/>
    <trip arrivalPos="4.87" depart="40057" departPos="93.72" from="nt3_nt2" id="random99_39600" to="nt7_nt6" type="griddistrandom"/>
    <trip arrivalPos="58.89" depart="40058" departPos="23.75" from="np5_nt4" id="random100_39600" to="nt11_nt12" type="griddistrandom"/>
    <trip arrivalPos="4.91" depart="40061" departPos="70.70" from="nt2_nt1" id="random101_39600" to="nt3_nt2" type="griddistrandom"/>
    <trip arrivalPos="106.85" depart="40065" departPos="55.24" from="np7_nt12" id="random102_39600" to="nt6_nt2" type="griddistrandom"/>
    <trip arrivalPos="39.17" depart="40072" departPos="25.02" from="nt12_nt11" id="random103_39600" to="nt15_nt14" type="griddistrandom"/>
    <trip arrivalPos="24.89" depart="40072" departPos="51.90" from="np1_nt1" id="random104_39600" to="nt5_np15" type="griddistrandom"/>
    <trip arrivalPos="59.40" depart="40073" departPos="141.12" from="nt11_nt15" id="random105_39600" to="nt16_np8" type="griddistrandom"/>
    <trip arrivalPos="18.03" depart="40073" departPos="41.35" from="np15_nt5" id="random106_39600" to="nt16_nt15" type="griddistrandom"/>
    <trip arrivalPos="88.48" depart="40079" departPos="46.84" from="nt11_nt12" id="random107_39600" to="nt11_nt7" type="griddistrandom"/>
    <trip arrivalPos="112.52" depart="40086" departPos="19.16" from="np9_nt16" id="random108_39600" to="nt7_nt6" type="griddistrandom"/>
    <trip arrivalPos="16.30" depart="40098" departPos="58.40" from="np16_nt1" id="random109_39600" to="nt11_nt15" type="griddistrandom"/>
    <trip arrivalPos="25.90" depart="40113" departPos="95.99" from="nt16_nt12" id="random110_39600" to="nt16_nt15" type="griddistrandom"/>
    <trip arrivalPos="81.00" depart="40115" departPos="88.15" from="nt10_nt9" id="random111_39600" to="nt9_nt13" type="griddistrandom"/>
    <trip arrivalPos="117.43" depart="40117" departPos="70.54" from="nt13_nt9" id="random112_39600" to="nt10_nt14" type="griddistrandom"/>
    <trip arrivalPos="21.55" depart="40118" departPos="173.42" from="nt6_nt10" id="random113_39600" to="nt7_nt3" type="griddistrandom"/>
    <trip arrivalPos="166.01" depart="40127" departPos="11.33" from="np5_nt4" id="random114_39600" to="nt11_nt15" type="griddistrandom"/>
    <trip arrivalPos="94.04" depart="40130" departPos="37.23" from="np11_nt14" id="random115_39600" to="nt5_nt9" type="griddistrandom"/>
    <trip arrivalPos="14.69" depart="40136" departPos="34.16" from="np11_nt14" id="random116_39600" to="nt3_np3" type="griddistrandom"/>
    <trip arrivalPos="39.81" depart="40136" departPos="0.66" from="np11_nt14" id="random117_39600" to="nt15_np10" type="griddistrandom"/>
    <trip arrivalPos="43.72" depart="40140" departPos="121.95" from="nt5_nt6" id="random118_39600" to="nt3_nt7" type="griddistrandom"/>
    <trip arrivalPos="15.84" depart="40141" departPos="102.24" from="nt12_nt8" id="random119_39600" to="nt4_np5" type="griddistrandom"/>
    <trip arrivalPos="124.61" depart="40144" departPos="49.51" from="np8_nt16" id="random120_39600" to="nt10_nt11" type="griddistrandom"/>
    <trip arrivalPos="1.87" depart="40151" departPos="34.16" from="nt6_nt7" id="random121_39600" to="nt8_nt12" type="griddistrandom"/>
    <trip arrivalPos="167.97" depart="40153" departPos="142.86" from="nt10_nt9" id="random122_39600" to="nt8_nt7" type="griddistrandom"/>
    <trip arrivalPos="60.01" depart="40164" departPos="7.08" from="nt6_nt5" id="random123_39600" to="nt16_np9" type="griddistrandom"/>
    <trip arrivalPos="40.25" depart="40171" departPos="172.27" from="nt5_nt6" id="random124_39600" to="nt16_np8" type="griddistrandom"/>
    <trip arrivalPos="149.13" depart="40175" departPos="32.54" from="nt11_nt15" id="random125_39600" to="nt13_nt9" type="griddistrandom"/>
    <trip arrivalPos="31.71" depart="40175" departPos="167.83" from="nt8_nt4" id="random126_39600" to="nt13_nt9" type="griddistrandom"/>
    <trip arrivalPos="101.61" depart="40182" departPos="35.58" from="nt9_nt13" id="random127_39600" to="nt4_nt3" type="griddistrandom"/>
    <trip arrivalPos="140.17" depart="40196" departPos="22.19" from="np2_nt2" id="random128_39600" to="nt13_nt14" type="griddistrandom"/>
    <trip arrivalPos="121.45" depart="40197" departPos="16.02" from="nt7_nt8" id="random129_39600" to="nt3_nt4" type="griddistrandom"/>
    <trip arrivalPos="59.60" depart="40201" departPos="0.41" from="nt7_nt3" id="random130_39600" to="nt2_nt3" type="griddistrandom"/>
    <trip arrivalPos="33.93" depart="40204" departPos="33.14" from="np12_nt13" id="random131_39600" to="nt3_np3" type="griddistrandom"/>
    <trip arrivalPos="40.25" depart="40210" departPos="64.82" from="nt6_nt5" id="random132_39600" to="nt4_np4" type="griddistrandom"/>
    <trip arrivalPos="33.68" depart="40214" departPos="172.77" from="nt4_nt8" id="random133_39600" to="nt15_np10" type="griddistrandom"/>
    <trip arrivalPos="41.75" depart="40215" departPos="118.55" from="nt12_nt8" id="random134_39600" to="nt3_np3" type="griddistrandom"/>
    <trip arrivalPos="60.42" depart="40223" departPos="9.34" from="nt9_nt10" id="random135_39600" to="nt9_np14" type="griddistrandom"/>
    <trip arrivalPos="49.19" depart="40227" departPos="34.63" from="np13_nt13" id="random136_39600" to="nt13_nt9" type="griddistrandom"/>
    <trip arrivalPos="57.71" depart="40255" departPos="62.31" from="np13_nt13" id="random137_39600" to="nt4_nt8" type="griddistrandom"/>
    <trip arrivalPos="106.71" depart="40255" departPos="110.01" from="nt10_nt6" id="random138_39600" to="nt10_nt6" type="griddistrandom"/>
    <trip arrivalPos="5.05" depart="40265" departPos="55.19" from="nt12_nt16" id="random139_39600" to="nt5_nt1" type="griddistrandom"/>
    <trip arrivalPos="37.88" depart="40268" departPos="101.31" from="nt14_nt13" id="random140_39600" to="nt9_np14" type="griddistrandom"/>
    <trip arrivalPos="63.64" depart="40276" departPos="45.67" from="nt15_nt14" id="random141_39600" to="nt9_np14" type="griddistrandom"/>
    <trip arrivalPos="143.04" depart="40277" departPos="5.11" from="nt2_nt1" id="random142_39600" to="nt14_nt10" type="griddistrandom"/>
    <trip arrivalPos="62.71" depart="40280" departPos="136.37" from="nt5_nt1" id="random143_39600" to="nt16_nt12" type="griddistrandom"/>
    <trip arrivalPos="163.97" depart="40287" departPos="123.34" from="nt3_nt4" id="random144_39600" to="nt14_nt15" type="griddistrandom"/>
    <trip arrivalPos="35.36" depart="40288" departPos="38.74" from="np15_nt5" id="random145_39600" to="nt9_nt5" type="griddistrandom"/>
    <trip arrivalPos="100.11" depart="40292" departPos="24.68" from="np1_nt1" id="random146_39600" to="nt11_nt15" type="griddistrandom"/>
    <trip arrivalPos="95.65" depart="40299" departPos="182.17" from="nt7_nt8" id="random147_39600" to="nt4_nt3" type="griddistrandom"/>
    <trip arrivalPos="3.31" depart="40302" departPos="159.31" from="nt7_nt6" id="random148_39600" to="nt4_np4" type="griddistrandom"/>
    <trip arrivalPos="48.26" depart="40307" departPos="174.12" from="nt6_nt2" id="random149_39600" to="nt4_nt8" type="griddistrandom"/>
    <trip arrivalPos="14.44" depart="40313" departPos="26.90" from="nt1_nt2" id="random150_39600" to="nt8_np6" type="griddistrandom"/>
    <trip arrivalPos="112.09" depart="40315" departPos="9.79" from="np14_nt9" id="random151_39600" to="nt9_nt13" type="griddistrandom"/>
    <trip arrivalPos="51.76" depart="40320" departPos="43.37" from="nt10_nt6" id="random152_39600" to="nt15_np10" type="griddistrandom"/>
    <trip arrivalPos="88.16" depart="40337" departPos="75.80" from="nt4_nt8" id="random153_39600" to="nt11_nt15" type="griddistrandom"/>
    <trip arrivalPos="130.32" depart="40342" departPos="29.60" from="np13_nt13" id="random154_39600" to="nt5_nt9" type="griddistrandom"/>
    <trip arrivalPos="97.24" depart="40345" departPos="112.72" from="nt14_nt15" id="random155_39600" to="nt8_nt12" type="griddistrandom"/>
    <trip arrivalPos="141.73" depart="40356" departPos="81.42" from="nt7_nt3" id="random156_39600" to="nt5_nt6" type="griddistrandom"/>
    <trip arrivalPos="66.63" depart="40360" departPos="128.42" from="nt11_nt12" id="random157_39600" to="nt1_nt5" type="griddistrandom"/>
    <trip arrivalPos="79.98" depart="40368" departPos="114.08" from="nt6_nt10" id="random158_39600" to="nt12_nt16" type="griddistrandom"/>
    <trip arrivalPos="130.63" depart="40371" departPos="72.32" from="nt3_nt2" id="random159_39600" to="nt10_nt6" type="griddistrandom"/>
    <trip arrivalPos="2.22" depart="40378" departPos="50.38" from="np12_nt13" id="random160_39600" to="nt9_np14" type="griddistrandom"/>
    <trip arrivalPos="67.87" depart="40378" departPos="177.71" from="nt9_nt5" id="random161_39600" to="nt7_nt8" type="griddistrandom"/>
    <trip arrivalPos="87.30" depart="40381" departPos="146.90" from="nt8_nt4" id="random162_39600" to="nt11_nt15" type="griddistrandom"/>
    <trip arrivalPos="6.40" depart="40388" departPos="7.84" from="np2_nt2" id="random163_39600" to="nt11_nt12" type="griddistrandom"/>
    <trip arrivalPos="81.29" depart="40394" departPos="127.64" from="nt9_nt5" id="random164_39600" to="nt9_nt10" type="griddistrandom"/>
    <trip arrivalPos="42.05" depart="40395" departPos="181.59" from="nt2_nt3" id="random165_39600" to="nt6_nt5" type="griddistrandom"/>
    <trip arrivalPos="134.72" depart="40396" departPos="41.40" from="nt5_nt1" id="random166_39600" to="nt3_nt2" type="griddistrandom"/>
    <trip arrivalPos="25.64" depart="40399" departPos="6.23" from="nt11_nt12" id="random167_39600" to="nt14_np11" type="griddistrandom"/>
    <trip arrivalPos="10.61" depart="40410" departPos="118.16" from="nt6_nt2" id="random168_39600" to="nt11_nt12" type="griddistrandom"/>
    <trip arrivalPos="0.82" depart="40413" departPos="47.43" from="nt10_nt6" id="random169_39600" to="nt16_nt15" type="griddistrandom"/>
    <trip arrivalPos="143.65" depart="40421" departPos="142.52" from="nt1_nt2" id="random170_39600" to="nt11_nt7" type="griddistrandom"/>
    <trip arrivalPos="123.51" depart="40421" departPos="150.27" from="nt7_nt11" id="random171_39600" to="nt2_nt1" type="griddistrandom"/>
    <trip arrivalPos="158.02" depart="40425" departPos="134.44" from="nt11_nt12" id="random172_39600" to="nt7_nt3" type="griddistrandom"/>
    <trip arrivalPos="97.93" depart="40444" departPos="79.01" from="nt4_nt8" id="random173_39600" to="nt15_nt16" type="griddistrandom"/>
    <trip arrivalPos="58.47" depart="40451" departPos="184.06" from="nt5_nt6" id="random174_39600" to="nt7_nt8" type="griddistrandom"/>
    <trip arrivalPos="6.65" depart="40454" departPos="122.94" from="nt12_nt11" id="random175_39600" to="nt12_nt11" type="griddistrandom"/>
    <trip arrivalPos="149.38" depart="40463" departPos="156.98" from="nt11_nt10" id="random176_39600" to="nt7_nt3" type="griddistrandom"/>
    <trip arrivalPos="30.86" depart="40463" departPos="127.32" from="nt2_nt6" id="random177_39600" to="nt2_np2" type="griddistrandom"/>
    <trip arrivalPos="106.38" depart="40467" departPos="179.53" from="nt5_nt6" id="random178_39600" to="nt8_nt4" type="griddistrandom"/>
    <trip arrivalPos="132.63" depart="40468" departPos="6.80" from="np6_nt8" id="random179_39600" to="nt14_nt15" type="griddistrandom"/>
    <trip arrivalPos="148.61" depart="40479" departPos="64.60" from="nt10_nt9" id="random180_39600" to="nt16_nt12" type="griddistrandom"/>
    <trip arrivalPos="59.03" depart="40483" departPos="72.16" from="np10_nt15" id="random181_39600" to="nt16_nt15" type="griddistrandom"/>
    <trip arrivalPos="16.09" depart="40486" departPos="34.99" from="np10_nt15" id="random182_39600" to="nt2_nt6" type="griddistrandom"/>
    <trip arrivalPos="86.06" depart="40489" departPos="62.88" from="np2_nt2" id="random183_39600" to="nt6_nt2" type="griddistrandom"/>
    <trip arrivalPos="160.86" depart="40490" departPos="123.27" from="nt5_nt1" id="random184_39600" to="nt13_nt14" type="griddistrandom"/>
    <trip arrivalPos="36.21" depart="40493" departPos="65.76" from="nt9_nt5" id="random185_39600" to="nt4_np5" type="griddistrandom"/>
    <trip arrivalPos="28.49" depart="40498" departPos="47.01" from="np2_nt2" id="random186_39600" to="nt6_nt5" type="griddistrandom"/>
    <trip arrivalPos="59.35" depart="40503" departPos="35.85" from="nt5_nt9" id="random187_39600" to="nt9_nt10" type="griddistrandom"/>
    <trip arrivalPos="159.77" depart="40504" departPos="161.61" from="nt12_nt16" id="random188_39600" to="nt8_nt7" type="griddistrandom"/>
    <trip arrivalPos="88.76" depart="40509" departPos="81.47" from="nt11_nt7" id="random189_39600" to="nt14_nt13" type="griddistrandom"/>
    <trip arrivalPos="43.79" depart="40521" departPos="94.78" from="nt3_nt4" id="random190_39600" to="nt5_nt1" type="griddistrandom"/>
    <trip arrivalPos="9.85" depart="40524" departPos="119.46" from="nt2_nt6" id="random191_39600" to="nt1_np16" type="griddistrandom"/>
    <trip arrivalPos="54.17" depart="40533" departPos="150.87" from="nt4_nt3" id="random192_39600" to="nt6_nt5" type="griddistrandom"/>
    <trip arrivalPos="119.10" depart="40534" departPos="91.64" from="nt9_nt13" id="random193_39600" to="nt3_nt4" type="griddistrandom"/>
    <trip arrivalPos="71.51" depart="40536" departPos="114.73" from="nt16_nt12" id="random194_39600" to="nt9_nt5" type="griddistrandom"/>
    <trip arrivalPos="19.54" depart="40544" departPos="94.73" from="nt7_nt8" id="random195_39600" to="nt10_nt9" type="griddistrandom"/>
    <trip arrivalPos="157.52" depart="40566" departPos="47.94" from="np9_nt16" id="random196_39600" to="nt12_nt16" type="griddistrandom"/>
    <trip arrivalPos="4.74" depart="40568" departPos="100.26" from="nt12_nt8" id="random197_39600" to="nt16_np9" type="griddistrandom"/>
    <trip arrivalPos="76.39" depart="40568" departPos="16.65" from="np2_nt2" id="random198_39600" to="nt1_nt5" type="griddistrandom"/>
    <trip arrivalPos="58.26" depart="40570" departPos="165.57" from="nt9_nt10" id="random199_39600" to="nt15_nt16" type="griddistrandom"/>
    <trip arrivalPos="51.56" depart="40575" departPos="60.66" from="np9_nt16" id="random200_39600" to="nt9_np14" type="griddistrandom"/>
    <trip arrivalPos="69.75" depart="40588" departPos="27.84" from="np2_nt2" id="random201_39600" to="nt14_nt13" type="griddistrandom"/>
    <trip arrivalPos="44.63" depart="40595" departPos="119.33" from="nt5_nt9" id="random202_39600" to="nt16_np8" type="griddistrandom"/>
    <trip arrivalPos="48.64" depart="40597" departPos="175.36" from="nt3_nt2" id="random203_39600" to="nt16_np8" type="griddistrandom"/>
    <trip arrivalPos="40.35" depart="40598" departPos="84.37" from="nt7_nt8" id="random204_39600" to="nt12_nt11" type="griddistrandom"/>
    <trip arrivalPos="138.31" depart="40606" departPos="35.18" from="np4_nt4" id="random205_39600" to="nt6_nt5" type="griddistrandom"/>
    <trip arrivalPos="64.13" depart="40624" departPos="29.70" from="nt4_nt8" id="random206_39600" to="nt4_nt3" type="griddistrandom"/>
    <trip arrivalPos="50.64" depart="40628" departPos="25.83" from="nt8_nt12" id="random207_39600" to="nt10_nt9" type="griddistrandom"/>
    <trip arrivalPos="96.55" depart="40632" departPos="105.50" from="nt10_nt9" id="random208_39600" to="nt16_nt12" type="griddistrandom"/>
    <trip arrivalPos="112.72" depart="40634" departPos="169.29" from="nt3_nt7" id="random209_39600" to="nt7_nt3" type="griddistrandom"/>
    <trip arrivalPos="101.38" depart="40640" departPos="35.06" from="nt11_nt12" id="random210_39600" to="nt9_nt10" type="griddistrandom"/>
    <trip arrivalPos="87.95" depart="40646" departPos="85.58" from="nt5_nt9" id="random211_39600" to="nt16_nt15" type="griddistrandom"/>
    <trip arrivalPos="5.93" depart="40646" departPos="122.58" from="nt2_nt1" id="random212_39600" to="nt15_nt16" type="griddistrandom"/>
    <trip arrivalPos="17.52" depart="40648" departPos="62.52" from="np4_nt4" id="random213_39600" to="nt3_np3" type="griddistrandom"/>
    <trip arrivalPos="176.63" depart="40652" departPos="63.13" from="nt3_nt4" id="random214_39600" to="nt13_nt14" type="griddistrandom"/>
    <trip arrivalPos="59.05" depart="40654" departPos="45.81" from="nt11_nt12" id="random215_39600" to="nt14_np11" type="griddistrandom"/>
    <trip arrivalPos="25.45" depart="40657" departPos="38.40" from="nt10_nt14" id="random216_39600" to="nt10_nt11" type="griddistrandom"/>
    <trip arrivalPos="57.28" depart="40658" departPos="76.99" from="nt10_nt14" id="random217_39600" to="nt6_nt7" type="griddistrandom"/>
    <trip arrivalPos="21.19" depart="40659" departPos="154.12" from="nt10_nt11" id="random218_39600" to="nt3_nt2" type="griddistrandom"/>