<routes>
    <trip arrivalPos="87.22" depart="36005" departPos="97.84" from="nt13_nt9" id="random0_36000" to="nt13_nt9" type="griddistrandom"/>
    <trip arrivalPos="60.42" depart="36027" departPos="34.46" from="nt8_nt4" id="random1_36000" to="nt4_np4" type="griddistrandom"/>
    <trip arrivalPos="29.20" depart="36028" departPos="55.75" from="np4_nt4" id="random2_36000" to="nt8_np6" type="griddistrandom"/>
    <trip arrivalPos="158.62" depart="36036" departPos="3.82" from="np9_nt16" id="random3_36000" to="nt9_nt5" type="griddistrandom"/>
    <trip arrivalPos="111.33" depart="36037" departPos="124.71" from="nt6_nt10" id="random4_36000" to="nt9_nt10" type="griddistrandom"/>
    <trip arrivalPos="58.56" depart="36042" departPos="6.93" from="np2_nt2" id="random5_36000" to="nt8_np6" type="griddistrandom"/>
    <trip arrivalPos="92.73" depart="36046" departPos="22.18" from="np3_nt3" id="random6_36000" to="nt6_nt2" type="griddistrandom"/>
    <trip arrivalPos="46.04" depart="36048" departPos="61.94" from="nt11_nt15" id="random7_36000" to="nt13_np12" type="griddistrandom"/>
    <trip arrivalPos="146.09" depart="36050" departPos="172.39" from="nt4_nt3" id="random8_36000" to="nt2_nt1" type="griddistrandom"/>
    <trip arrivalPos="45.29" depart="36056" departPos="40.79" from="nt5_nt9" id="random9_36000" to="nt8_nt12" type="griddistrandom"/>
    <trip arrivalPos="73.54" depart="36075" departPos="40.94" from="np11_nt14" id="random10_36000" to="nt12_nt16" type="griddistrandom"/>
    <trip arrivalPos="116.08" depart="36083" departPos="176.74" from="nt10_nt6" id="random11_36000" to="nt10_nt9" type="griddistrandom"/>
    <trip arrivalPos="145.58" depart="36087" departPos="52.21" from="nt9_nt5" id="random12_36000" to="nt3_nt7" type="griddistrandom"/>
    <trip arrivalPos="60.08" depart="36089" departPos="46.72" from="np5_nt4" id="random13_36000" to="nt7_nt8" type="griddistrandom"/>
    <trip arrivalPos="66.41" depart="36096" departPos="139.25" from="nt5_nt1" id="random14_36000" to="nt16_nt15" type="griddistrandom"/>
    <trip arrivalPos="129.04" depart="36096" departPos="85.19" from="nt14_nt10" id="random15_36000" to="nt9_nt13" type="griddistrandom"/>
    <trip arrivalPos="57.90" depart="36105" departPos="2.27" from="np14_nt9" id="random16_36000" to="nt1_nt2" type="griddistrandom"/>
    <trip arrivalPos="116.16" depart="36107" departPos="97.50" from="nt5_nt1" id="random17_36000" to="nt10_nt9" type="griddistrandom"/>
    <trip arrivalPos="47.36" depart="36110" departPos="20.55" from="nt7_nt6" id="random18_36000" to="nt16_np8" type="griddistrandom"/>
    <trip arrivalPos="16.75" depart="36127" departPos="124.92" from="nt6_nt10" id="random19_36000" to="nt16_nt12" type="griddistrandom"/>
    <trip arrivalPos="56.46" depart="36128" departPos="6.03" from="np1_nt1" id="random20_36000" to="nt16_np8" type="griddistrandom"/>
    <trip arrivalPos="86.30" depart="36131" departPos="126.33" from="nt13_nt9" id="random21_36000" to="nt1_nt2" type="griddistrandom"/>
    <trip arrivalPos="109.54" depart="36135" departPos="78.34" from="nt6_nt2" id="random22_36000" to="nt10_nt9" type="griddistrandom"/>
    <trip arrivalPos="126.58" depart="36136" departPos="26.49" from="nt1_nt2" id="random23_36000" to="nt11_nt7" type="griddistrandom"/>
    <trip arrivalPos="160.25" depart="36141" departPos="160.67" from="nt8_nt7" id="random24_36000" to="nt13_nt14" type="griddistrandom"/>
    <trip arrivalPos="18.75" depart="36150" departPos="115.26" from="nt14_nt13" id="random25_36000" to="nt12_np7" type="griddistrandom"/>
    <trip arrivalPos="82.84" depart="36150" departPos="117.51" from="nt8_nt4" id="random26_36000" to="nt2_nt6" type="griddistrandom"/>
    <trip arrivalPos="151.78" depart="36157" departPos="40.35" from="np5_nt4" id="random27_36000" to="nt14_nt13" type="griddistrandom"/>
    <trip arrivalPos="48.80" depart="36159" departPos="3.70" from="np16_nt1" id="random28_36000" to="nt4_nt3" type="griddistrandom"/>
    <trip arrivalPos="44.31" depart="36164" departPos="103.06" from="nt11_nt10" id="random29_36000" to="nt10_nt6" type="griddistrandom"/>
    <trip arrivalPos="136.14" depart="36166" departPos="17.95" from="np15_nt5" id="random30_36000" to="nt2_nt1" type="griddistrandom"/>
    <trip arrivalPos="60.61" depart="36168" departPos="92.94" from="nt4_nt8" id="random31_36000" to="nt10_nt6" type="griddistrandom"/>
    <trip arrivalPos="129.44" depart="36168" departPos="136.82" from="nt14_nt15" id="random32_36000" to="nt9_nt13" type="griddistrandom"/>
    <trip arrivalPos="32.88" depart="36182" departPos="21.93" from="np8_nt16" id="random33_36000" to="nt8_nt4" type="griddistrandom"/>
    <trip arrivalPos="59.27" depart="36187" departPos="109.68" from="nt6_nt2" id="random34_36000" to="nt5_nt1" type="griddistrandom"/>
    <trip arrivalPos="46.79" depart="36194" departPos="113.94" from="nt7_nt6" id="random35_36000" to="nt3_np3" type="griddistrandom"/>
    <trip arrivalPos="54.13" depart="36199" departPos="37.48" from="nt6_nt5" id="random36_36000" to="nt12_nt11" type="griddistrandom"/>
    <trip arrivalPos="13.60" depart="36203" departPos="131.46" from="nt6_nt7" id="random37_36000" to="nt6_nt5" type="griddistrandom"/>
    <trip arrivalPos="36.48" depart="36219" departPos="142.43" from="nt5_nt6" id="random38_36000" to="nt7_nt11" type="griddistrandom"/>
    <trip arrivalPos="53.45" depart="36219" departPos="106.97" from="nt7_nt3" id="random39_36000" to="nt1_np1" type="griddistrandom"/>
    <trip arrivalPos="81.00" depart="36221" departPos="141.01" from="nt2_nt1" id="random40_36000" to="nt7_nt6" type="griddistrandom"/>
    <trip arrivalPos="42.60" depart="36225" departPos="6.16" from="nt6_nt5" id="random41_36000" to="nt13_np13" type="griddistrandom"/>
    <trip arrivalPos="65.96" depart="36227" departPos="18.30" from="np3_nt3" id="random42_36000" to="nt12_np7" type="griddistrandom"/>
    <trip arrivalPos="116.03" depart="36231" departPos="124.41" from="nt11_nt15" id="random43_36000" to="nt1_nt5" type="griddistrandom"/>
    <trip arrivalPos="34.20" depart="36235" departPos="89.53" from="nt11_nt10" id="random44_36000" to="nt1_np1" type="griddistrandom"/>
    <trip arrivalPos="95.21" depart="36239" departPos="16.21" from="nt7_nt8" id="random45_36000" to="nt9_nt10" type="griddistrandom"/>
    <trip arrivalPos="51.07" depart="36247" departPos="62.91" from="np6_nt8" id="random46_36000" to="nt13_np13" type="griddistrandom"/>
    <trip arrivalPos="48.14" depart="36249" departPos="159.85" from="nt9_nt5" id="random47_36000" to="nt12_np7" type="griddistrandom"/>
    <trip arrivalPos="13.92" depart="36253" departPos="137.11" from="nt12_nt16" id="random48_36000" to="nt13_np12" type="griddistrandom"/>
    <trip arrivalPos="91.16" depart="36254" departPos="4.85" from="np3_nt3" id="random49_36000" to="nt10_nt14" type="griddistrandom"/>
    <trip arrivalPos="55.64" depart="36256" departPos="8.14" from="nt9_nt5" id="random50_36000" to="nt4_np4" type="griddistrandom"/>
    <trip arrivalPos="13.66" depart="36265" departPos="24.53" from="nt5_nt9" id="random51_36000" to="nt11_nt7" type="griddistrandom"/>
    <trip arrivalPos="148.77" depart="36275" departPos="123.62" from="nt16_nt12" id="random52_36000" to="nt11_nt7" type="griddistrandom"/>
    <trip arrivalPos="68.52" depart="36276" departPos="105.73" from="nt9_nt5" id="random53_36000" to="nt12_nt16" type="griddistrandom"/>
    <trip arrivalPos="37.83" depart="36282" departPos="40.43" from="nt7_nt6" id="random54_36000" to="nt16_nt12" type="griddistrandom"/>
    <trip arrivalPos="57.49" depart="36290" departPos="133.29" from="nt9_nt10" id="random55_36000" to="nt11_nt7" type="griddistrandom"/>
    <trip arrivalPos="120.58" depart="36293" departPos="143.30" from="nt7_nt6" id="random56_36000" to="nt5_nt9" type="griddistrandom"/>
    <trip arrivalPos="69.79" depart="36294" departPos="182.14" from="nt11_nt10" id="random57_36000" to="nt16_nt12" type="griddistrandom"/>
    <trip arrivalPos="51.21" depart="36305" departPos="49.38" from="nt6_nt10" id="random58_36000" to="nt1_np1" type="griddistrandom"/>
    <trip arrivalPos="43.64" depart="36317" departPos="35.84" from="nt12_nt16" id="random59_36000" to="nt16_np8" type="griddistrandom"/>
    <trip arrivalPos="163.82" depart="36317" departPos="75.23" from="nt14_nt13" id="random60_36000" to="nt15_nt14" type="griddistrandom"/>
    <trip arrivalPos="25.16" depart="36319" departPos="76.43" from="nt15_nt11" id="random61_36000" to="nt14_nt13" type="griddistrandom"/>
    <trip arrivalPos="118.13" depart="36322" departPos="53.79" from="nt4_nt3" id="random62_36000" to="nt10_nt6" type="griddistrandom"/>
    <trip arrivalPos="3.98" depart="36329" departPos="11.68" from="nt13_nt14" id="random63_36000" to="nt8_nt4" type="griddistrandom"/>
    <trip arrivalPos="84.52" depart="36332" departPos="139.06" from="nt9_nt13" id="random64_36000" to="nt9_nt13" type="griddistrandom"/>
    <trip arrivalPos="6.99" depart="36332" departPos="158.75" from="nt14_nt13" id="random65_36000" to="nt8_np6" type="griddistrandom"/>
    <trip arrivalPos="81.95" depart="36334" departPos="23.66" from="nt10_nt6" id="random66_36000" to="nt4_nt3" type="griddistrandom"/>
    <trip arrivalPos="148.18" depart="36334" departPos="36.80" from="np13_nt13" id="random67_36000" to="nt5_nt1" type="griddistrandom"/>
    <trip arrivalPos="141.80" depart="36336" departPos="15.88" from="nt6_nt5" id="random68_36000" to="nt6_nt2" type="griddistrandom"/>
    <trip arrivalPos="46.66" depart="36339" departPos="143.53" from="nt8_nt4" id="random69_36000" to="nt11_nt7" type="griddistrandom"/>
    <trip arrivalPos="1.69" depart="36340" departPos="149.80" from="nt2_nt3" id="random70_36000" to="nt1_nt5" type="griddistrandom"/>
    <trip arrivalPos="29.85" depart="36350" departPos="151.76" from="nt10_nt9" id="random71_36000" to="nt9_np14" type="griddistrandom"/>
    <trip arrivalPos="44.91" depart="36355" departPos="172.24" from="nt12_nt8" id="random72_36000" to="nt5_nt1" type="griddistrandom"/>
    <trip arrivalPos="131.58" depart="36363" departPos="8.53" from="np15_nt5" id="random73_36000" to="nt2_nt6" type="griddistrandom"/>
    <trip arrivalPos="120.61" depart="36364" departPos="8.12" from="np3_nt3" id="random74_36000" to="nt4_nt8" type="griddistrandom"/>
    <trip arrivalPos="130.19" depart="36365" departPos="8.32" from="nt9_nt10" id="random75_36000" to="nt11_nt15" type="griddistrandom"/>
    <trip arrivalPos="54.37" depart="36368" departPos="109.02" from="nt6_nt2" id="random76_36000" to="nt4_np5" type="griddistrandom"/>
    <trip arrivalPos="154.87" depart="36368" departPos="135.99" from="nt1_nt5" id="random77_36000" to="nt4_nt3" type="griddistrandom"/>
    <trip arrivalPos="167.89" depart="36388" departPos="128.91" from="nt3_nt4" id="random78_36000" to="nt10_nt14" type="griddistrandom"/>
    <trip arrivalPos="34.50" depart="36397" departPos="119.43" from="nt11_nt10" id="random79_36000" to="nt3_np3" type="griddistrandom"/>
    <trip arrivalPos="58.70" depart="36402" departPos="87.83" from="nt10_nt11" id="random80_36000" to="nt15_nt14" type="griddistrandom"/>
    <trip arrivalPos="57.55" depart="36404" departPos="99.37" from="nt13_nt14" id="random81_36000" to="nt7_nt3" type="griddistrandom"/>
    <trip arrivalPos="20.61" depart="36413" departPos="19.09" from="nt3_nt4" id="random82_36000" to="nt9_nt5" type="griddistrandom"/>
    <trip arrivalPos="30.28" depart="36415" departPos="168.67" from="nt9_nt13" id="random83_36000" to="nt14_nt15" type="griddistrandom"/>
    <trip arrivalPos="140.50" depart="36415" departPos="63.91" from="nt5_nt9" id="random84_36000" to="nt12_nt11" type="griddistrandom"/>
    <trip arrivalPos="51.66" depart="36417" departPos="10.44" from="np8_nt16" id="random85_36000" to="nt1_np16" type="griddistrandom"/>
    <trip arrivalPos="53.15" depart="36420" departPos="144.14" from="nt11_nt15" id="random86_36000" to="nt13_np12" type="griddistrandom"/>
    <trip arrivalPos="106.82" depart="36435" departPos="19.40" from="nt16_nt15" id="random87_36000" to="nt6_nt2" type="griddistrandom"/>
    <trip arrivalPos="70.56" depart="36436" departPos="171.54" from="nt11_nt10" id="random88_36000" to="nt4_np5" type="griddistrandom"/>
    <trip arrivalPos="157.76" depart="36439" departPos="83.38" from="nt6_nt2" id="random89_36000" to="nt8_nt4" type="griddistrandom"/>
    <trip arrivalPos="153.97" depart="36441" departPos="152.36" from="nt15_nt11" id="random90_36000" to="nt8_nt7" type="griddistrandom"/>
    <trip arrivalPos="92.44" depart="36446" departPos="14.13" from="nt1_nt5" id="random91_36000" to="nt10_nt6" type="griddistrandom"/>
    <trip arrivalPos="13.24" depart="36447" departPos="48.35" from="nt5_nt1" id="random92_36000" to="nt2_np2" type="griddistrandom"/>
    <trip arrivalPos="108.82" depart="36448" departPos="29.72" from="np10_nt15" id="random93_36000" to="nt3_nt2" type="griddistrandom"/>
    <trip arrivalPos="9.47" depart="36449" departPos="11.50" from="np15_nt5" id="random94_36000" to="nt1_np16" type="griddistrandom"/>
    <trip arrivalPos="48.32" depart="36450" departPos="4.68" from="nt10_nt9" id="random95_36000" to="nt11_nt12" type="griddistrandom"/>
    <trip arrivalPos="49.49" depart="36453" departPos="53.50" from="nt2_nt3" id="random96_36000" to="nt6_nt2" type="griddistrandom"/>
    <trip arrivalPos="107.43" depart="36455" departPos="95.74" from="nt13_nt14" id="random97_36000" to="nt3_nt7" type="griddistrandom"/>
    <trip arrivalPos="15.72" depart="36456" departPos="41.03" from="np13_nt13" id="random98_36000" to="nt4_np5" type="griddistrandom"/>
    <trip arrivalPos="4.87" depart="36457" departPos="93.72" from="nt3_nt2" id="random99_36000" to="nt7_nt6" type="griddistrandom"/>
    <trip arrivalPos="58.89" depart="36458" departPos="23.75" from="np5_nt4" id="random100_36000" to="nt11_nt12" type="griddistrandom"/>
    <trip arrivalPos="4.91" depart="36461" departPos="70.70" from="nt2_nt1" id="random101_36000" to="nt3_nt2" type="griddistrandom"/>
    <trip arrivalPos="106.85" depart="36465" departPos="55.24" from="np7_nt12" id="random102_36000" to="nt6_nt2" type="griddistrandom"/>
    <trip arrivalPos="39.17" depart="36472" departPos="25.02" from="nt12_nt11" id="random103_36000" to="nt15_nt14" type="griddistrandom"/>
    <trip arrivalPos="24.89" depart="36472" departPos="51.90" from="np1_nt1" id="random104_36000" to="nt5_np15" type="griddistrandom"/>
    <trip arrivalPos="59.40" depart="36473" departPos="141.12" from="nt11_nt15" id="random105_36000" to="nt16_np8" type="griddistrandom"/>
    <trip arrivalPos="18.03" depart="36473" departPos="41.35" from="np15_nt5" id="random106_36000" to="nt16_nt15" type="griddistrandom"/>
    <trip arrivalPos="88.48" depart="36479" departPos="46.84" from="nt11_nt12" id="random107_36000" to="nt11_nt7" type="griddistrandom"/>
    <trip arrivalPos="112.52" depart="36486" departPos="19.16" from="np9_nt16" id="random108_36000" to="nt7_nt6" type="griddistrandom"/>
    <trip arrivalPos="16.30" depart="36498" departPos="58.40" from="np16_nt1" id="random109_36000" to="nt11_nt15" type="griddistrandom"/>
    <trip arrivalPos="25.90" depart="36513" departPos="95.99" from="nt16_nt12" id="random110_36000" to="nt16_nt15" type="griddistrandom"/>
    <trip arrivalPos="81.00" depart="36515" departPos="88.15" from="nt10_nt9" id="random111_36000" to="nt9_nt13" type="griddistrandom"/>
    <trip arrivalPos="117.43" depart="36517" departPos="70.54" from="nt13_nt9" id="random112_36000" to="nt10_nt14" type="griddistrandom"/>
    <trip arrivalPos="21.55" depart="36518" departPos="173.42" from="nt6_nt10" id="random113_36000" to="nt7_nt3" type="griddistrandom"/>
    <trip arrivalPos="166.01" depart="36527" departPos="11.33" from="np5_nt4" id="random114_36000" to="nt11_nt15" type="griddistrandom"/>
    <trip arrivalPos="94.04" depart="36530" departPos="37.23" from="np11_nt14" id="random115_36000" to="nt5_nt9" type="griddistrandom"/>
    <trip arrivalPos="14.69" depart="36536" departPos="34.16" from="np11_nt14" id="random116_36000" to="nt3_np3" type="griddistrandom"/>
    <trip arrivalPos="39.81" depart="36536" departPos="0.66" from="np11_nt14" id="random117_36000" to="nt15_np10" type="griddistrandom"/>
    <trip arrivalPos="43.72" depart="36540" departPos="121.95" from="nt5_nt6" id="random118_36000" to="nt3_nt7" type="griddistrandom"/>
    <trip arrivalPos="15.84" depart="36541" departPos="102.24" from="nt12_nt8" id="random119_36000" to="nt4_np5" type="griddistrandom"/>
    <trip arrivalPos="124.61" depart="36544" departPos="49.51" from="np8_nt16" id="random120_36000" to="nt10_nt11" type="griddistrandom"/>
    <trip arrivalPos="1.87" depart="36551" departPos="34.16" from="nt6_nt7" id="random121_36000" to="nt8_nt12" type="griddistrandom"/>
    <trip arrivalPos="167.97" depart="36553" departPos="142.86" from="nt10_nt9" id="random122_36000" to="nt8_nt7" type="griddistrandom"/>
    <trip arrivalPos="60.01" depart="36564" departPos="7.08" from="nt6_nt5" id="random123_36000" to="nt16_np9" type="griddistrandom"/>
    <trip arrivalPos="40.25" depart="36571" departPos="172.27" from="nt5_nt6" id="random124_36000" to="nt16_np8" type="griddistrandom"/>
    <trip arrivalPos="149.13" depart="36575" departPos="32.54" from="nt11_nt15" id="random125_36000" to="nt13_nt9" type="griddistrandom"/>
    <trip arrivalPos="31.71" depart="36575" departPos="167.83" from="nt8_nt4" id="random126_36000" to="nt13_nt9" type="griddistrandom"/>
    <trip arrivalPos="101.61" depart="36582" departPos="35.58" from="nt9_nt13" id="random127_36000" to="nt4_nt3" type="griddistrandom"/>
    <trip arrivalPos="140.17" depart="36596" departPos="22.19" from="np2_nt2" id="random128_36000" to="nt13_nt14" type="griddistrandom"/>
    <trip arrivalPos="121.45" depart="36597" departPos="16.02" from="nt7_nt8" id="random129_36000" to="nt3_nt4" type="griddistrandom"/>
    <trip arrivalPos="59.60" depart="36601" departPos="0.41" from="nt7_nt3" id="random130_36000" to="nt2_nt3" type="griddistrandom"/>
    <trip arrivalPos="33.93" depart="36604" departPos="33.14" from="np12_nt13" id="random131_36000" to="nt3_np3" type="griddistrandom"/>
    <trip arrivalPos="40.25" depart="36610" departPos="64.82" from="nt6_nt5" id="random132_36000" to="nt4_np4" type="griddistrandom"/>
    <trip arrivalPos="33.68" depart="36614" departPos="172.77" from="nt4_nt8" id="random133_36000" to="nt15_np10" type="griddistrandom"/>
    <trip arrivalPos="41.75" depart="36615" departPos="118.55" from="nt12_nt8" id="random134_36000" to="nt3_np3" type="griddistrandom"/>
    <trip arrivalPos="60.42" depart="36623" departPos="9.34" from="nt9_nt10" id="random135_36000" to="nt9_np14" type="griddistrandom"/>
    <trip arrivalPos="49.19" depart="36627" departPos="34.63" from="np13_nt13" id="random136_36000" to="nt13_nt9" type="griddistrandom"/>
    <trip arrivalPos="57.71" depart="36655" departPos="62.31" from="np13_nt13" id="random137_36000" to="nt4_nt8" type="griddistrandom"/>
    <trip arrivalPos="106.71" depart="36655" departPos="110.01" from="nt10_nt6" id="random138_36000" to="nt10_nt6" type="griddistrandom"/>
    <trip arrivalPos="5.05" depart="36665" departPos="55.19" from="nt12_nt16" id="random139_36000" to="nt5_nt1" type="griddistrandom"/>
    <trip arrivalPos="37.88" depart="36668" departPos="101.31" from="nt14_nt13" id="random140_36000" to="nt9_np14" type="griddistrandom"/>
    <trip arrivalPos="63.64" depart="36676" departPos="45.67" from="nt15_nt14" id="random141_36000" to="nt9_np14" type="griddistrandom"/>
    <trip arrivalPos="143.04" depart="36677" departPos="5.11" from="nt2_nt1" id="random142_36000" to="nt14_nt10" type="griddistrandom"/>
    <trip arrivalPos="62.71" depart="36680" departPos="136.37" from="nt5_nt1" id="random143_36000" to="nt16_nt12" type="griddistrandom"/>
    <trip arrivalPos="163.97" depart="36687" departPos="123.34" from="nt3_nt4" id="random144_36000" to="nt14_nt15" type="griddistrandom"/>
    <trip arrivalPos="35.36" depart="36688" departPos="38.74" from="np15_nt5" id="random145_36000" to="nt9_nt5" type="griddistrandom"/>
    <trip arrivalPos="100.11" depart="36692" departPos="24.68" from="np1_nt1" id="random146_36000" to="nt11_nt15" type="griddistrandom"/>
    <trip arrivalPos="95.65" depart="36699" departPos="182.17" from="nt7_nt8" id="random147_36000" to="nt4_nt3" type="griddistrandom"/>
    <trip arrivalPos="3.31" depart="36702" departPos="159.31" from="nt7_nt6" id="random148_36000" to="nt4_np4" type="griddistrandom"/>
    <trip arrivalPos="48.26" depart="36707" departPos="174.12" from="nt6_nt2" id="random149_36000" to="nt4_nt8" type="griddistrandom"/>
    <trip arrivalPos="14.44" depart="36713" departPos="26.90" from="nt1_nt2" id="random150_36000" to="nt8_np6" type="griddistrandom"/>
    <trip arrivalPos="112.09" depart="36715" departPos="9.79" from="np14_nt9" id="random151_36000" to="nt9_nt13" type="griddistrandom"/>
    <trip arrivalPos="51.76" depart="36720" departPos="43.37" from="nt10_nt6" id="random152_36000" to="nt15_np10" type="griddistrandom"/>
    <trip arrivalPos="88.16" depart="36737" departPos="75.80" from="nt4_nt8" id="random153_36000" to="nt11_nt15" type="griddistrandom"/>
    <trip arrivalPos="130.32" depart="36742" departPos="29.60" from="np13_nt13" id="random154_36000" to="nt5_nt9" type="griddistrandom"/>
    <trip arrivalPos="97.24" depart="36745" departPos="112.72" from="nt14_nt15" id="random155_36000" to="nt8_nt12" type="griddistrandom"/>
    <trip arrivalPos="141.73" depart="36756" departPos="81.42" from="nt7_nt3" id="random156_36000" to="nt5_nt6" type="griddistrandom"/>
    <trip arrivalPos="66.63" depart="36760" departPos="128.42" from="nt11_nt12" id="random157_36000" to="nt1_nt5" type="griddistrandom"/>
    <trip arrivalPos="79.98" depart="36768" departPos="114.08" from="nt6_nt10" id="random158_36000" to="nt12_nt16" type="griddistrandom"/>
    <trip arrivalPos="130.63" depart="36771" departPos="72.32" from="nt3_nt2" id="random159_36000" to="nt10_nt6" type="griddistrandom"/>
    <trip arrivalPos="2.22" depart="36778" departPos="50.38" from="np12_nt13" id="random160_36000" to="nt9_np14" type="griddistrandom"/>
    <trip arrivalPos="67.87" depart="36778" departPos="177.71" from="nt9_nt5" id="random161_36000" to="nt7_nt8" type="griddistrandom"/>
    <trip arrivalPos="87.30" depart="36781" departPos="146.90" from="nt8_nt4" id="random162_36000" to="nt11_nt15" type="griddistrandom"/>
    <trip arrivalPos="6.40" depart="36788" departPos="7.84" from="np2_nt2" id="random163_36000" to="nt11_nt12" type="griddistrandom"/>
    <trip arrivalPos="81.29" depart="36794" departPos="127.64" from="nt9_nt5" id="random164_36000" to="nt9_nt10" type="griddistrandom"/>
    <trip arrivalPos="42.05" depart="36795" departPos="181.59" from="nt2_nt3" id="random165_36000" to="nt6_nt5" type="griddistrandom"/>
    <trip arrivalPos="134.72" depart="36796" departPos="41.40" from="nt5_nt1" id="random166_36000" to="nt3_nt2" type="griddistrandom"/>
    <trip arrivalPos="25.64" depart="36799" departPos="6.23" from="nt11_nt12" id="random167_36000" to="nt14_np11" type="griddistrandom"/>
    <trip arrivalPos="10.61" depart="36810" departPos="118.16" from="nt6_nt2" id="random168_36000" to="nt11_nt12" type="griddistrandom"/>
    <trip arrivalPos="0.82" depart="36813" departPos="47.43" from="nt10_nt6" id="random169_36000" to="nt16_nt15" type="griddistrandom"/>
    <trip arrivalPos="143.65" depart="36821" departPos="142.52" from="nt1_nt2" id="random170_36000" to="nt11_nt7" type="griddistrandom"/>
    <trip arrivalPos="123.51" depart="36821" departPos="150.27" from="nt7_nt11" id="random171_36000" to="nt2_nt1" type="griddistrandom"/>
    <trip arrivalPos="158.02" depart="36825" departPos="134.44" from="nt11_nt12" id="random172_36000" to="nt7_nt3" type="griddistrandom"/>
    <trip arrivalPos="97.93" depart="36844" departPos="79.01" from="nt4_nt8" id="random173_36000" to="nt15_nt16" type="griddistrandom"/>
    <trip arrivalPos="58.47" depart="36851" departPos="184.06" from="nt5_nt6" id="random174_36000" to="nt7_nt8" type="griddistrandom"/>
    <trip arrivalPos="6.65" depart="36854" departPos="122.94" from="nt12_nt11" id="random175_36000" to="nt12_nt11" type="griddistrandom"/>
    <trip arrivalPos="149.38" depart="36863" departPos="156.98" from="nt11_nt10" id="random176_36000" to="nt7_nt3" type="griddistrandom"/>
    <trip arrivalPos="30.86" depart="36863" departPos="127.32" from="nt2_nt6" id="random177_36000" to="nt2_np2" type="griddistrandom"/>
    <trip arrivalPos="106.38" depart="36867" departPos="179.53" from="nt5_nt6" id="random178_36000" to="nt8_nt4" type="griddistrandom"/>
    <trip arrivalPos="132.63" depart="36868" departPos="6.80" from="np6_nt8" id="random179_36000" to="nt14_nt15" type="griddistrandom"/>
    <trip arrivalPos="148.61" depart="36879" departPos="64.60" from="nt10_nt9" id="random180_36000" to="nt16_nt12" type="griddistrandom"/>
    <trip arrivalPos="59.03" depart="36883" departPos="72.16" from="np10_nt15" id="random181_36000" to="nt16_nt15" type="griddistrandom"/>
    <trip arrivalPos="16.09" depart="36886" departPos="34.99" from="np10_nt15" id="random182_36000" to="nt2_nt6" type="griddistrandom"/>
    <trip arrivalPos="86.06" depart="36889" departPos="62.88" from="np2_nt2" id="random183_36000" to="nt6_nt2" type="griddistrandom"/>
    <trip arrivalPos="160.86" depart="36890" departPos="123.27" from="nt5_nt1" id="random184_36000" to="nt13_nt14" type="griddistrandom"/>
    <trip arrivalPos="36.21" depart="36893" departPos="65.76" from="nt9_nt5" id="random185_36000" to="nt4_np5" type="griddistrandom"/>
    <trip arrivalPos="28.49" depart="36898" departPos="47.01" from="np2_nt2" id="random186_36000" to="nt6_nt5" type="griddistrandom"/>
    <trip arrivalPos="59.35" depart="36903" departPos="35.85" from="nt5_nt9" id="random187_36000" to="nt9_nt10" type="griddistrandom"/>
    <trip arrivalPos="159.77" depart="36904" departPos="161.61" from="nt12_nt16" id="random188_36000" to="nt8_nt7" type="griddistrandom"/>
    <trip arrivalPos="88.76" depart="36909" departPos="81.47" from="nt11_nt7" id="random189_36000" to="nt14_nt13" type="griddistrandom"/>
    <trip arrivalPos="43.79" depart="36921" departPos="94.78" from="nt3_nt4" id="random190_36000" to="nt5_nt1" type="griddistrandom"/>
    <trip arrivalPos="9.85" depart="36924" departPos="119.46" from="nt2_nt6" id="random191_36000" to="nt1_np16" type="griddistrandom"/>
    <trip arrivalPos="54.17" depart="36933" departPos="150.87" from="nt4_nt3" id="random192_36000" to="nt6_nt5" type="griddistrandom"/>
    <trip arrivalPos="119.10" depart="36934" departPos="91.64" from="nt9_nt13" id="random193_36000" to="nt3_nt4" type="griddistrandom"/>
    <trip arrivalPos="71.51" depart="36936" departPos="114.73" from="nt16_nt12" id="random194_36000" to="nt9_nt5" type="griddistrandom"/>
    <trip arrivalPos="19.54" depart="36944" departPos="94.73" from="nt7_nt8" id="random195_36000" to="nt10_nt9" type="griddistrandom"/>
    <trip arrivalPos="157.52" depart="36966" departPos="47.94" from="np9_nt16" id="random196_36000" to="nt12_nt16" type="griddistrandom"/>
    <trip arrivalPos="4.74" depart="36968" departPos="100.26" from="nt12_nt8" id="random197_36000" to="nt16_np9" type="griddistrandom"/>
    <trip arrivalPos="76.39" depart="36968" departPos="16.65" from="np2_nt2" id="random198_36000" to="nt1_nt5" type="griddistrandom"/>
    <trip arrivalPos="58.26" depart="36970" departPos="165.57" from="nt9_nt10" id="random199_36000" to="nt15_nt16" type="griddistrandom"/>
    <trip arrivalPos="51.56" depart="36975" departPos="60.66" from="np9_nt16" id="random200_36000" to="nt9_np14" type="griddistrandom"/>
    <trip arrivalPos="69.75" depart="36988" departPos="27.84" from="np2_nt2" id="random201_36000" to="nt14_nt13" type="griddistrandom"/>
    <trip arrivalPos="44.63" depart="36995" departPos="119.33" from="nt5_nt9" id="random202_36000" to="nt16_np8" type="griddistrandom"/>
    <trip arrivalPos="48.64" depart="36997" departPos="175.36" from="nt3_nt2" id="random203_36000" to="nt16_np8" type="griddistrandom"/>
    <trip arrivalPos="40.35" depart="36998" departPos="84.37" from="nt7_nt8" id="random204_36000" to="nt12_nt11" type="griddistrandom"/>
    <trip arrivalPos="138.31" depart="37006" departPos="35.18" from="np4_nt4" id="random205_36000" to="nt6_nt5" type="griddistrandom"/>
    <trip arrivalPos="64.13" depart="37024" departPos="29.70" from="nt4_nt8" id="random206_36000" to="nt4_nt3" type="griddistrandom"/>
    <trip arrivalPos="50.64" depart="37028" departPos="25.83" from="nt8_nt12" id="random207_36000" to="nt10_nt9" type="griddistrandom"/>
    <trip arrivalPos="96.55" depart="37032" departPos="105.50" from="nt10_nt9" id="random208_36000" to="nt16_nt12" type="griddistrandom"/>
    <trip arrivalPos="112.72" depart="37034" departPos="169.29" from="nt3_nt7" id="random209_36000" to="nt7_nt3" type="griddistrandom"/>
    <trip arrivalPos="101.38" depart="37040" departPos="35.06" from="nt11_nt12" id="random210_36000" to="nt9_nt10" type="griddistrandom"/>
    <trip arrivalPos="87.95" depart="37046" departPos="85.58" from="nt5_nt9" id="random211_36000" to="nt16_nt15" type="griddistrandom"/>
    <trip arrivalPos="5.93" depart="37046" departPos="122.58" from="nt2_nt1" id="random212_36000" to="nt15_nt16" type="griddistrandom"/>
    <trip arrivalPos="17.52" depart="37048" departPos="62.52" from="np4_nt4" id="random213_36000" to="nt3_np3" type="griddistrandom"/>
    <trip arrivalPos="176.63" depart="37052" departPos="63.13" from="nt3_nt4" id="random214_36000" to="nt13_nt14" type="griddistrandom"/>
    <trip arrivalPos="59.05" depart="37054" departPos="45.81" from="nt11_nt12" id="random215_36000" to="nt14_np11" type="griddistrandom"/>
    <trip arrivalPos="25.45" depart="37057" departPos="38.40" from="nt10_nt14" id="random216_36000" to="nt10_nt11" type="griddistrandom"/>
    <trip arrivalPos="57.28" depart="37058" departPos="76.99" from="nt10_nt14" id="random217_36000" to="nt6_nt7" type="griddistrandom"/>
    <trip arrivalPos="21.19" depart="37059" departPos="154.12" from="nt10_nt11" id="random218_36000" to="nt3_nt2" type="griddistrandom"/>