<routes>
    <trip arrivalPos="87.22" depart="57605" departPos="97.84" from="nt13_nt9" id="random0_57600" to="nt13_nt9" type="griddistrandom"/>
    <trip arrivalPos="60.42" depart="57627" departPos="34.46" from="nt8_nt4" id="random1_57600" to="nt4_np4" type="griddistrandom"/>
    <trip arrivalPos="29.20" depart="57628" departPos="55.75" from="np4_nt4" id="random2_57600" to="nt8_np6" type="griddistrandom"/>
    <trip arrivalPos="158.62" depart="57636" departPos="3.82" from="np9_nt16" id="random3_57600" to="nt9_nt5" type="griddistrandom"/>
    <trip arrivalPos="111.33" depart="57637" departPos="124.71" from="nt6_nt10" id="random4_57600" to="nt9_nt10" type="griddistrandom"/>
    <trip arrivalPos="58.56" depart="57642" departPos="6.93" from="np2_nt2" id="random5_57600" to="nt8_np6" type="griddistrandom"/>
    <trip arrivalPos="92.73" depart="57646" departPos="22.18" from="np3_nt3" id="random6_57600" to="nt6_nt2" type="griddistrandom"/>
    <trip arrivalPos="46.04" depart="57648" departPos="61.94" from="nt11_nt15" id="random7_57600" to="nt13_np12" type="griddistrandom"/>
    <trip arrivalPos="146.09" depart="57650" departPos="172.39" from="nt4_nt3" id="random8_57600" to="nt2_nt1" type="griddistrandom"/>
    <trip arrivalPos="45.29" depart="57656" departPos="40.79" from="nt5_nt9" id="random9_57600" to="nt8_nt12" type="griddistrandom"/>
    <trip arrivalPos="73.54" depart="57675" departPos="40.94" from="np11_nt14" id="random10_57600" to="nt12_nt16" type="griddistrandom"/>
    <trip arrivalPos="116.08" depart="57683" departPos="176.74" from="nt10_nt6" id="random11_57600" to="nt10_nt9" type="griddistrandom"/>
    <trip arrivalPos="145.58" depart="57687" departPos="52.21" from="nt9_nt5" id="random12_57600" to="nt3_nt7" type="griddistrandom"/>
    <trip arrivalPos="60.08" depart="57689" departPos="46.72" from="np5_nt4" id="random13_57600" to="nt7_nt8" type="griddistrandom"/>
    <trip arrivalPos="66.41" depart="57696" departPos="139.25" from="nt5_nt1" id="random14_57600" to="nt16_nt15" type="griddistrandom"/>
    <trip arrivalPos="129.04" depart="57696" departPos="85.19" from="nt14_nt10" id="random15_57600" to="nt9_nt13" type="griddistrandom"/>
    <trip arrivalPos="57.90" depart="57705" departPos="2.27" from="np14_nt9" id="random16_57600" to="nt1_nt2" type="griddistrandom"/>
    <trip arrivalPos="116.16" depart="57707" departPos="97.50" from="nt5_nt1" id="random17_57600" to="nt10_nt9" type="griddistrandom"/>
    <trip arrivalPos="47.36" depart="57710" departPos="20.55" from="nt7_nt6" id="random18_57600" to="nt16_np8" type="griddistrandom"/>
    <trip arrivalPos="16.75" depart="57727" departPos="124.92" from="nt6_nt10" id="random19_57600" to="nt16_nt12" type="griddistrandom"/>
    <trip arrivalPos="56.46" depart="57728" departPos="6.03" from="np1_nt1" id="random20_57600" to="nt16_np8" type="griddistrandom"/>
    <trip arrivalPos="86.30" depart="57731" departPos="126.33" from="nt13_nt9" id="random21_57600" to="nt1_nt2" type="griddistrandom"/>
    <trip arrivalPos="109.54" depart="57735" departPos="78.34" from="nt6_nt2" id="random22_57600" to="nt10_nt9" type="griddistrandom"/>
    <trip arrivalPos="126.58" depart="57736" departPos="26.49" from="nt1_nt2" id="random23_57600" to="nt11_nt7" type="griddistrandom"/>
    <trip arrivalPos="160.25" depart="57741" departPos="160.67" from="nt8_nt7" id="random24_57600" to="nt13_nt14" type="griddistrandom"/>
    <trip arrivalPos="18.75" depart="57750" departPos="115.26" from="nt14_nt13" id="random25_57600" to="nt12_np7" type="griddistrandom"/>
    <trip arrivalPos="82.84" depart="57750" departPos="117.51" from="nt8_nt4" id="random26_57600" to="nt2_nt6" type="griddistrandom"/>
    <trip arrivalPos="151.78" depart="57757" departPos="40.35" from="np5_nt4" id="random27_57600" to="nt14_nt13" type="griddistrandom"/>
    <trip arrivalPos="48.80" depart="57759" departPos="3.70" from="np16_nt1" id="random28_57600" to="nt4_nt3" type="griddistrandom"/>
    <trip arrivalPos="44.31" depart="57764" departPos="103.06" from="nt11_nt10" id="random29_57600" to="nt10_nt6" type="griddistrandom"/>
    <trip arrivalPos="136.14" depart="57766" departPos="17.95" from="np15_nt5" id="random30_57600" to="nt2_nt1" type="griddistrandom"/>
    <trip arrivalPos="60.61" depart="57768" departPos="92.94" from="nt4_nt8" id="random31_57600" to="nt10_nt6" type="griddistrandom"/>
    <trip arrivalPos="129.44" depart="57768" departPos="136.82" from="nt14_nt15" id="random32_57600" to="nt9_nt13" type="griddistrandom"/>
    <trip arrivalPos="32.88" depart="57782" departPos="21.93" from="np8_nt16" id="random33_57600" to="nt8_nt4" type="griddistrandom"/>
    <trip arrivalPos="59.27" depart="57787" departPos="109.68" from="nt6_nt2" id="random34_57600" to="nt5_nt1" type="griddistrandom"/>
    <trip arrivalPos="46.79" depart="57794" departPos="113.94" from="nt7_nt6" id="random35_57600" to="nt3_np3" type="griddistrandom"/>
    <trip arrivalPos="54.13" depart="57799" departPos="37.48" from="nt6_nt5" id="random36_57600" to="nt12_nt11" type="griddistrandom"/>
    <trip arrivalPos="13.60" depart="57803" departPos="131.46" from="nt6_nt7" id="random37_57600" to="nt6_nt5" type="griddistrandom"/>
    <trip arrivalPos="36.48" depart="57819" departPos="142.43" from="nt5_nt6" id="random38_57600" to="nt7_nt11" type="griddistrandom"/>
    <trip arrivalPos="53.45" depart="57819" departPos="106.97" from="nt7_nt3" id="random39_57600" to="nt1_np1" type="griddistrandom"/>
    <trip arrivalPos="81.00" depart="57821" departPos="141.01" from="nt2_nt1" id="random40_57600" to="nt7_nt6" type="griddistrandom"/>
    <trip arrivalPos="42.60" depart="57825" departPos="6.16" from="nt6_nt5" id="random41_57600" to="nt13_np13" type="griddistrandom"/>
    <trip arrivalPos="65.96" depart="57827" departPos="18.30" from="np3_nt3" id="random42_57600" to="nt12_np7" type="griddistrandom"/>
    <trip arrivalPos="116.03" depart="57831" departPos="124.41" from="nt11_nt15" id="random43_57600" to="nt1_nt5" type="griddistrandom"/>
    <trip arrivalPos="34.20" depart="57835" departPos="89.53" from="nt11_nt10" id="random44_57600" to="nt1_np1" type="griddistrandom"/>
    <trip arrivalPos="95.21" depart="57839" departPos="16.21" from="nt7_nt8" id="random45_57600" to="nt9_nt10" type="griddistrandom"/>
    <trip arrivalPos="51.07" depart="57847" departPos="62.91" from="np6_nt8" id="random46_57600" to="nt13_np13" type="griddistrandom"/>
    <trip arrivalPos="48.14" depart="57849" departPos="159.85" from="nt9_nt5" id="random47_57600" to="nt12_np7" type="griddistrandom"/>
    <trip arrivalPos="13.92" depart="57853" departPos="137.11" from="nt12_nt16" id="random48_57600" to="nt13_np12" type="griddistrandom"/>
    <trip arrivalPos="91.16" depart="57854" departPos="4.85" from="np3_nt3" id="random49_57600" to="nt10_nt14" type="griddistrandom"/>
    <trip arrivalPos="55.64" depart="57856" departPos="8.14" from="nt9_nt5" id="random50_57600" to="nt4_np4" type="griddistrandom"/>
    <trip arrivalPos="13.66" depart="57865" departPos="24.53" from="nt5_nt9" id="random51_57600" to="nt11_nt7" type="griddistrandom"/>
    <trip arrivalPos="148.77" depart="57875" departPos="123.62" from="nt16_nt12" id="random52_57600" to="nt11_nt7" type="griddistrandom"/>
    <trip arrivalPos="68.52" depart="57876" departPos="105.73" from="nt9_nt5" id="random53_57600" to="nt12_nt16" type="griddistrandom"/>
    <trip arrivalPos="37.83" depart="57882" departPos="40.43" from="nt7_nt6" id="random54_57600" to="nt16_nt12" type="griddistrandom"/>
    <trip arrivalPos="57.49" depart="57890" departPos="133.29" from="nt9_nt10" id="random55_57600" to="nt11_nt7" type="griddistrandom"/>
    <trip arrivalPos="120.58" depart="57893" departPos="143.30" from="nt7_nt6" id="random56_57600" to="nt5_nt9" type="griddistrandom"/>
    <trip arrivalPos="69.79" depart="57894" departPos="182.14" from="nt11_nt10" id="random57_57600" to="nt16_nt12" type="griddistrandom"/>
    <trip arrivalPos="51.21" depart="57905" departPos="49.38" from="nt6_nt10" id="random58_57600" to="nt1_np1" type="griddistrandom"/>
    <trip arrivalPos="43.64" depart="57917" departPos="35.84" from="nt12_nt16" id="random59_57600" to="nt16_np8" type="griddistrandom"/>
    <trip arrivalPos="163.82" depart="57917" departPos="75.23" from="nt14_nt13" id="random60_57600" to="nt15_nt14" type="griddistrandom"/>
    <trip arrivalPos="25.16" depart="57919" departPos="76.43" from="nt15_nt11" id="random61_57600" to="nt14_nt13" type="griddistrandom"/>
    <trip arrivalPos="118.13" depart="57922" departPos="53.79" from="nt4_nt3" id="random62_57600" to="nt10_nt6" type="griddistrandom"/>
    <trip arrivalPos="3.98" depart="57929" departPos="11.68" from="nt13_nt14" id="random63_57600" to="nt8_nt4" type="griddistrandom"/>
    <trip arrivalPos="84.52" depart="57932" departPos="139.06" from="nt9_nt13" id="random64_57600" to="nt9_nt13" type="griddistrandom"/>
    <trip arrivalPos="6.99" depart="57932" departPos="158.75" from="nt14_nt13" id="random65_57600" to="nt8_np6" type="griddistrandom"/>
    <trip arrivalPos="81.95" depart="57934" departPos="23.66" from="nt10_nt6" id="random66_57600" to="nt4_nt3" type="griddistrandom"/>
    <trip arrivalPos="148.18" depart="57934" departPos="36.80" from="np13_nt13" id="random67_57600" to="nt5_nt1" type="griddistrandom"/>
    <trip arrivalPos="141.80" depart="57936" departPos="15.88" from="nt6_nt5" id="random68_57600" to="nt6_nt2" type="griddistrandom"/>
    <trip arrivalPos="46.66" depart="57939" departPos="143.53" from="nt8_nt4" id="random69_57600" to="nt11_nt7" type="griddistrandom"/>
    <trip arrivalPos="1.69" depart="57940" departPos="149.80" from="nt2_nt3" id="random70_57600" to="nt1_nt5" type="griddistrandom"/>
    <trip arrivalPos="29.85" depart="57950" departPos="151.76" from="nt10_nt9" id="random71_57600" to="nt9_np14" type="griddistrandom"/>
    <trip arrivalPos="44.91" depart="57955" departPos="172.24" from="nt12_nt8" id="random72_57600" to="nt5_nt1" type="griddistrandom"/>
    <trip arrivalPos="131.58" depart="57963" departPos="8.53" from="np15_nt5" id="random73_57600" to="nt2_nt6" type="griddistrandom"/>
    <trip arrivalPos="120.61" depart="57964" departPos="8.12" from="np3_nt3" id="random74_57600" to="nt4_nt8" type="griddistrandom"/>
    <trip arrivalPos="130.19" depart="57965" departPos="8.32" from="nt9_nt10" id="random75_57600" to="nt11_nt15" type="griddistrandom"/>
    <trip arrivalPos="54.37" depart="57968" departPos="109.02" from="nt6_nt2" id="random76_57600" to="nt4_np5" type="griddistrandom"/>
    <trip arrivalPos="154.87" depart="57968" departPos="135.99" from="nt1_nt5" id="random77_57600" to="nt4_nt3" type="griddistrandom"/>
    <trip arrivalPos="167.89" depart="57988" departPos="128.91" from="nt3_nt4" id="random78_57600" to="nt10_nt14" type="griddistrandom"/>
    <trip arrivalPos="34.50" depart="57997" departPos="119.43" from="nt11_nt10" id="random79_57600" to="nt3_np3" type="griddistrandom"/>
    <trip arrivalPos="58.70" depart="58002" departPos="87.83" from="nt10_nt11" id="random80_57600" to="nt15_nt14" type="griddistrandom"/>
    <trip arrivalPos="57.55" depart="58004" departPos="99.37" from="nt13_nt14" id="random81_57600" to="nt7_nt3" type="griddistrandom"/>
    <trip arrivalPos="20.61" depart="58013" departPos="19.09" from="nt3_nt4" id="random82_57600" to="nt9_nt5" type="griddistrandom"/>
    <trip arrivalPos="30.28" depart="58015" departPos="168.67" from="nt9_nt13" id="random83_57600" to="nt14_nt15" type="griddistrandom"/>
    <trip arrivalPos="140.50" depart="58015" departPos="63.91" from="nt5_nt9" id="random84_57600" to="nt12_nt11" type="griddistrandom"/>
    <trip arrivalPos="51.66" depart="58017" departPos="10.44" from="np8_nt16" id="random85_57600" to="nt1_np16" type="griddistrandom"/>
    <trip arrivalPos="53.15" depart="58020" departPos="144.14" from="nt11_nt15" id="random86_57600" to="nt13_np12" type="griddistrandom"/>
    <trip arrivalPos="106.82" depart="58035" departPos="19.40" from="nt16_nt15" id="random87_57600" to="nt6_nt2" type="griddistrandom"/>
    <trip arrivalPos="70.56" depart="58036" departPos="171.54" from="nt11_nt10" id="random88_57600" to="nt4_np5" type="griddistrandom"/>
    <trip arrivalPos="157.76" depart="58039" departPos="83.38" from="nt6_nt2" id="random89_57600" to="nt8_nt4" type="griddistrandom"/>
    <trip arrivalPos="153.97" depart="58041" departPos="152.36" from="nt15_nt11" id="random90_57600" to="nt8_nt7" type="griddistrandom"/>
    <trip arrivalPos="92.44" depart="58046" departPos="14.13" from="nt1_nt5" id="random91_57600" to="nt10_nt6" type="griddistrandom"/>
    <trip arrivalPos="13.24" depart="58047" departPos="48.35" from="nt5_nt1" id="random92_57600" to="nt2_np2" type="griddistrandom"/>
    <trip arrivalPos="108.82" depart="58048" departPos="29.72" from="np10_nt15" id="random93_57600" to="nt3_nt2" type="griddistrandom"/>
    <trip arrivalPos="9.47" depart="58049" departPos="11.50" from="np15_nt5" id="random94_57600" to="nt1_np16" type="griddistrandom"/>
    <trip arrivalPos="48.32" depart="58050" departPos="4.68" from="nt10_nt9" id="random95_57600" to="nt11_nt12" type="griddistrandom"/>
    <trip arrivalPos="49.49" depart="58053" departPos="53.50" from="nt2_nt3" id="random96_57600" to="nt6_nt2" type="griddistrandom"/>
    <trip arrivalPos="107.43" depart="58055" departPos="95.74" from="nt13_nt14" id="random97_57600" to="nt3_nt7" type="griddistrandom"/>
    <trip arrivalPos="15.72" depart="58056" departPos="41.03" from="np13_nt13" id="random98_57600" to="nt4_np5" type="griddistrandom"/>
    <trip arrivalPos="4.87" depart="58057" departPos="93.72" from="nt3_nt2" id="random99_57600" to="nt7_nt6" type="griddistrandom"/>
    <trip arrivalPos="58.89" depart="58058" departPos="23.75" from="np5_nt4" id="random100_57600" to="nt11_nt12" type="griddistrandom"/>
    <trip arrivalPos="4.91" depart="58061" departPos="70.70" from="nt2_nt1" id="random101_57600" to="nt3_nt2" type="griddistrandom"/>
    <trip arrivalPos="106.85" depart="58065" departPos="55.24" from="np7_nt12" id="random102_57600" to="nt6_nt2" type="griddistrandom"/>
    <trip arrivalPos="39.17" depart="58072" departPos="25.02" from="nt12_nt11" id="random103_57600" to="nt15_nt14" type="griddistrandom"/>
    <trip arrivalPos="24.89" depart="58072" departPos="51.90" from="np1_nt1" id="random104_57600" to="nt5_np15" type="griddistrandom"/>
    <trip arrivalPos="59.40" depart="58073" departPos="141.12" from="nt11_nt15" id="random105_57600" to="nt16_np8" type="griddistrandom"/>
    <trip arrivalPos="18.03" depart="58073" departPos="41.35" from="np15_nt5" id="random106_57600" to="nt16_nt15" type="griddistrandom"/>
    <trip arrivalPos="88.48" depart="58079" departPos="46.84" from="nt11_nt12" id="random107_57600" to="nt11_nt7" type="griddistrandom"/>
    <trip arrivalPos="112.52" depart="58086" departPos="19.16" from="np9_nt16" id="random108_57600" to="nt7_nt6" type="griddistrandom"/>
    <trip arrivalPos="16.30" depart="58098" departPos="58.40" from="np16_nt1" id="random109_57600" to="nt11_nt15" type="griddistrandom"/>
    <trip arrivalPos="25.90" depart="58113" departPos="95.99" from="nt16_nt12" id="random110_57600" to="nt16_nt15" type="griddistrandom"/>
    <trip arrivalPos="81.00" depart="58115" departPos="88.15" from="nt10_nt9" id="random111_57600" to="nt9_nt13" type="griddistrandom"/>
    <trip arrivalPos="117.43" depart="58117" departPos="70.54" from="nt13_nt9" id="random112_57600" to="nt10_nt14" type="griddistrandom"/>
    <trip arrivalPos="21.55" depart="58118" departPos="173.42" from="nt6_nt10" id="random113_57600" to="nt7_nt3" type="griddistrandom"/>
    <trip arrivalPos="166.01" depart="58127" departPos="11.33" from="np5_nt4" id="random114_57600" to="nt11_nt15" type="griddistrandom"/>
    <trip arrivalPos="94.04" depart="58130" departPos="37.23" from="np11_nt14" id="random115_57600" to="nt5_nt9" type="griddistrandom"/>
    <trip arrivalPos="14.69" depart="58136" departPos="34.16" from="np11_nt14" id="random116_57600" to="nt3_np3" type="griddistrandom"/>
    <trip arrivalPos="39.81" depart="58136" departPos="0.66" from="np11_nt14" id="random117_57600" to="nt15_np10" type="griddistrandom"/>
    <trip arrivalPos="43.72" depart="58140" departPos="121.95" from="nt5_nt6" id="random118_57600" to="nt3_nt7" type="griddistrandom"/>
    <trip arrivalPos="15.84" depart="58141" departPos="102.24" from="nt12_nt8" id="random119_57600" to="nt4_np5" type="griddistrandom"/>
    <trip arrivalPos="124.61" depart="58144" departPos="49.51" from="np8_nt16" id="random120_57600" to="nt10_nt11" type="griddistrandom"/>
    <trip arrivalPos="1.87" depart="58151" departPos="34.16" from="nt6_nt7" id="random121_57600" to="nt8_nt12" type="griddistrandom"/>
    <trip arrivalPos="167.97" depart="58153" departPos="142.86" from="nt10_nt9" id="random122_57600" to="nt8_nt7" type="griddistrandom"/>
    <trip arrivalPos="60.01" depart="58164" departPos="7.08" from="nt6_nt5" id="random123_57600" to="nt16_np9" type="griddistrandom"/>
    <trip arrivalPos="40.25" depart="58171" departPos="172.27" from="nt5_nt6" id="random124_57600" to="nt16_np8" type="griddistrandom"/>
    <trip arrivalPos="149.13" depart="58175" departPos="32.54" from="nt11_nt15" id="random125_57600" to="nt13_nt9" type="griddistrandom"/>
    <trip arrivalPos="31.71" depart="58175" departPos="167.83" from="nt8_nt4" id="random126_57600" to="nt13_nt9" type="griddistrandom"/>
    <trip arrivalPos="101.61" depart="58182" departPos="35.58" from="nt9_nt13" id="random127_57600" to="nt4_nt3" type="griddistrandom"/>
    <trip arrivalPos="140.17" depart="58196" departPos="22.19" from="np2_nt2" id="random128_57600" to="nt13_nt14" type="griddistrandom"/>
    <trip arrivalPos="121.45" depart="58197" departPos="16.02" from="nt7_nt8" id="random129_57600" to="nt3_nt4" type="griddistrandom"/>
    <trip arrivalPos="59.60" depart="58201" departPos="0.41" from="nt7_nt3" id="random130_57600" to="nt2_nt3" type="griddistrandom"/>
    <trip arrivalPos="33.93" depart="58204" departPos="33.14" from="np12_nt13" id="random131_57600" to="nt3_np3" type="griddistrandom"/>
    <trip arrivalPos="40.25" depart="58210" departPos="64.82" from="nt6_nt5" id="random132_57600" to="nt4_np4" type="griddistrandom"/>
    <trip arrivalPos="33.68" depart="58214" departPos="172.77" from="nt4_nt8" id="random133_57600" to="nt15_np10" type="griddistrandom"/>
    <trip arrivalPos="41.75" depart="58215" departPos="118.55" from="nt12_nt8" id="random134_57600" to="nt3_np3" type="griddistrandom"/>
    <trip arrivalPos="60.42" depart="58223" departPos="9.34" from="nt9_nt10" id="random135_57600" to="nt9_np14" type="griddistrandom"/>
    <trip arrivalPos="49.19" depart="58227" departPos="34.63" from="np13_nt13" id="random136_57600" to="nt13_nt9" type="griddistrandom"/>
    <trip arrivalPos="57.71" depart="58255" departPos="62.31" from="np13_nt13" id="random137_57600" to="nt4_nt8" type="griddistrandom"/>
    <trip arrivalPos="106.71" depart="58255" departPos="110.01" from="nt10_nt6" id="random138_57600" to="nt10_nt6" type="griddistrandom"/>
    <trip arrivalPos="5.05" depart="58265" departPos="55.19" from="nt12_nt16" id="random139_57600" to="nt5_nt1" type="griddistrandom"/>
    <trip arrivalPos="37.88" depart="58268" departPos="101.31" from="nt14_nt13" id="random140_57600" to="nt9_np14" type="griddistrandom"/>
    <trip arrivalPos="63.64" depart="58276" departPos="45.67" from="nt15_nt14" id="random141_57600" to="nt9_np14" type="griddistrandom"/>
    <trip arrivalPos="143.04" depart="58277" departPos="5.11" from="nt2_nt1" id="random142_57600" to="nt14_nt10" type="griddistrandom"/>
    <trip arrivalPos="62.71" depart="58280" departPos="136.37" from="nt5_nt1" id="random143_57600" to="nt16_nt12" type="griddistrandom"/>
    <trip arrivalPos="163.97" depart="58287" departPos="123.34" from="nt3_nt4" id="random144_57600" to="nt14_nt15" type="griddistrandom"/>
    <trip arrivalPos="35.36" depart="58288" departPos="38.74" from="np15_nt5" id="random145_57600" to="nt9_nt5" type="griddistrandom"/>
    <trip arrivalPos="100.11" depart="58292" departPos="24.68" from="np1_nt1" id="random146_57600" to="nt11_nt15" type="griddistrandom"/>
    <trip arrivalPos="95.65" depart="58299" departPos="182.17" from="nt7_nt8" id="random147_57600" to="nt4_nt3" type="griddistrandom"/>
    <trip arrivalPos="3.31" depart="58302" departPos="159.31" from="nt7_nt6" id="random148_57600" to="nt4_np4" type="griddistrandom"/>
    <trip arrivalPos="48.26" depart="58307" departPos="174.12" from="nt6_nt2" id="random149_57600" to="nt4_nt8" type="griddistrandom"/>
    <trip arrivalPos="14.44" depart="58313" departPos="26.90" from="nt1_nt2" id="random150_57600" to="nt8_np6" type="griddistrandom"/>
    <trip arrivalPos="112.09" depart="58315" departPos="9.79" from="np14_nt9" id="random151_57600" to="nt9_nt13" type="griddistrandom"/>
    <trip arrivalPos="51.76" depart="58320" departPos="43.37" from="nt10_nt6" id="random152_57600" to="nt15_np10" type="griddistrandom"/>
    <trip arrivalPos="88.16" depart="58337" departPos="75.80" from="nt4_nt8" id="random153_57600" to="nt11_nt15" type="griddistrandom"/>
    <trip arrivalPos="130.32" depart="58342" departPos="29.60" from="np13_nt13" id="random154_57600" to="nt5_nt9" type="griddistrandom"/>
    <trip arrivalPos="97.24" depart="58345" departPos="112.72" from="nt14_nt15" id="random155_57600" to="nt8_nt12" type="griddistrandom"/>
    <trip arrivalPos="141.73" depart="58356" departPos="81.42" from="nt7_nt3" id="random156_57600" to="nt5_nt6" type="griddistrandom"/>
    <trip arrivalPos="66.63" depart="58360" departPos="128.42" from="nt11_nt12" id="random157_57600" to="nt1_nt5" type="griddistrandom"/>
    <trip arrivalPos="79.98" depart="58368" departPos="114.08" from="nt6_nt10" id="random158_57600" to="nt12_nt16" type="griddistrandom"/>
    <trip arrivalPos="130.63" depart="58371" departPos="72.32" from="nt3_nt2" id="random159_57600" to="nt10_nt6" type="griddistrandom"/>
    <trip arrivalPos="2.22" depart="58378" departPos="50.38" from="np12_nt13" id="random160_57600" to="nt9_np14" type="griddistrandom"/>
    <trip arrivalPos="67.87" depart="58378" departPos="177.71" from="nt9_nt5" id="random161_57600" to="nt7_nt8" type="griddistrandom"/>
    <trip arrivalPos="87.30" depart="58381" departPos="146.90" from="nt8_nt4" id="random162_57600" to="nt11_nt15" type="griddistrandom"/>
    <trip arrivalPos="6.40" depart="58388" departPos="7.84" from="np2_nt2" id="random163_57600" to="nt11_nt12" type="griddistrandom"/>
    <trip arrivalPos="81.29" depart="58394" departPos="127.64" from="nt9_nt5" id="random164_57600" to="nt9_nt10" type="griddistrandom"/>
    <trip arrivalPos="42.05" depart="58395" departPos="181.59" from="nt2_nt3" id="random165_57600" to="nt6_nt5" type="griddistrandom"/>
    <trip arrivalPos="134.72" depart="58396" departPos="41.40" from="nt5_nt1" id="random166_57600" to="nt3_nt2" type="griddistrandom"/>
    <trip arrivalPos="25.64" depart="58399" departPos="6.23" from="nt11_nt12" id="random167_57600" to="nt14_np11" type="griddistrandom"/>
    <trip arrivalPos="10.61" depart="58410" departPos="118.16" from="nt6_nt2" id="random168_57600" to="nt11_nt12" type="griddistrandom"/>
    <trip arrivalPos="0.82" depart="58413" departPos="47.43" from="nt10_nt6" id="random169_57600" to="nt16_nt15" type="griddistrandom"/>
    <trip arrivalPos="143.65" depart="58421" departPos="142.52" from="nt1_nt2" id="random170_57600" to="nt11_nt7" type="griddistrandom"/>
    <trip arrivalPos="123.51" depart="58421" departPos="150.27" from="nt7_nt11" id="random171_57600" to="nt2_nt1" type="griddistrandom"/>
    <trip arrivalPos="158.02" depart="58425" departPos="134.44" from="nt11_nt12" id="random172_57600" to="nt7_nt3" type="griddistrandom"/>
    <trip arrivalPos="97.93" depart="58444" departPos="79.01" from="nt4_nt8" id="random173_57600" to="nt15_nt16" type="griddistrandom"/>
    <trip arrivalPos="58.47" depart="58451" departPos="184.06" from="nt5_nt6" id="random174_57600" to="nt7_nt8" type="griddistrandom"/>
    <trip arrivalPos="6.65" depart="58454" departPos="122.94" from="nt12_nt11" id="random175_57600" to="nt12_nt11" type="griddistrandom"/>
    <trip arrivalPos="149.38" depart="58463" departPos="156.98" from="nt11_nt10" id="random176_57600" to="nt7_nt3" type="griddistrandom"/>
    <trip arrivalPos="30.86" depart="58463" departPos="127.32" from="nt2_nt6" id="random177_57600" to="nt2_np2" type="griddistrandom"/>
    <trip arrivalPos="106.38" depart="58467" departPos="179.53" from="nt5_nt6" id="random178_57600" to="nt8_nt4" type="griddistrandom"/>
    <trip arrivalPos="132.63" depart="58468" departPos="6.80" from="np6_nt8" id="random179_57600" to="nt14_nt15" type="griddistrandom"/>
    <trip arrivalPos="148.61" depart="58479" departPos="64.60" from="nt10_nt9" id="random180_57600" to="nt16_nt12" type="griddistrandom"/>
    <trip arrivalPos="59.03" depart="58483" departPos="72.16" from="np10_nt15" id="random181_57600" to="nt16_nt15" type="griddistrandom"/>
    <trip arrivalPos="16.09" depart="58486" departPos="34.99" from="np10_nt15" id="random182_57600" to="nt2_nt6" type="griddistrandom"/>
    <trip arrivalPos="86.06" depart="58489" departPos="62.88" from="np2_nt2" id="random183_57600" to="nt6_nt2" type="griddistrandom"/>
    <trip arrivalPos="160.86" depart="58490" departPos="123.27" from="nt5_nt1" id="random184_57600" to="nt13_nt14" type="griddistrandom"/>
    <trip arrivalPos="36.21" depart="58493" departPos="65.76" from="nt9_nt5" id="random185_57600" to="nt4_np5" type="griddistrandom"/>
    <trip arrivalPos="28.49" depart="58498" departPos="47.01" from="np2_nt2" id="random186_57600" to="nt6_nt5" type="griddistrandom"/>
    <trip arrivalPos="59.35" depart="58503" departPos="35.85" from="nt5_nt9" id="random187_57600" to="nt9_nt10" type="griddistrandom"/>
    <trip arrivalPos="159.77" depart="58504" departPos="161.61" from="nt12_nt16" id="random188_57600" to="nt8_nt7" type="griddistrandom"/>
    <trip arrivalPos="88.76" depart="58509" departPos="81.47" from="nt11_nt7" id="random189_57600" to="nt14_nt13" type="griddistrandom"/>
    <trip arrivalPos="43.79" depart="58521" departPos="94.78" from="nt3_nt4" id="random190_57600" to="nt5_nt1" type="griddistrandom"/>
    <trip arrivalPos="9.85" depart="58524" departPos="119.46" from="nt2_nt6" id="random191_57600" to="nt1_np16" type="griddistrandom"/>
    <trip arrivalPos="54.17" depart="58533" departPos="150.87" from="nt4_nt3" id="random192_57600" to="nt6_nt5" type="griddistrandom"/>
    <trip arrivalPos="119.10" depart="58534" departPos="91.64" from="nt9_nt13" id="random193_57600" to="nt3_nt4" type="griddistrandom"/>
    <trip arrivalPos="71.51" depart="58536" departPos="114.73" from="nt16_nt12" id="random194_57600" to="nt9_nt5" type="griddistrandom"/>
    <trip arrivalPos="19.54" depart="58544" departPos="94.73" from="nt7_nt8" id="random195_57600" to="nt10_nt9" type="griddistrandom"/>
    <trip arrivalPos="157.52" depart="58566" departPos="47.94" from="np9_nt16" id="random196_57600" to="nt12_nt16" type="griddistrandom"/>
    <trip arrivalPos="4.74" depart="58568" departPos="100.26" from="nt12_nt8" id="random197_57600" to="nt16_np9" type="griddistrandom"/>
    <trip arrivalPos="76.39" depart="58568" departPos="16.65" from="np2_nt2" id="random198_57600" to="nt1_nt5" type="griddistrandom"/>
    <trip arrivalPos="58.26" depart="58570" departPos="165.57" from="nt9_nt10" id="random199_57600" to="nt15_nt16" type="griddistrandom"/>
    <trip arrivalPos="51.56" depart="58575" departPos="60.66" from="np9_nt16" id="random200_57600" to="nt9_np14" type="griddistrandom"/>
    <trip arrivalPos="69.75" depart="58588" departPos="27.84" from="np2_nt2" id="random201_57600" to="nt14_nt13" type="griddistrandom"/>
    <trip arrivalPos="44.63" depart="58595" departPos="119.33" from="nt5_nt9" id="random202_57600" to="nt16_np8" type="griddistrandom"/>
    <trip arrivalPos="48.64" depart="58597" departPos="175.36" from="nt3_nt2" id="random203_57600" to="nt16_np8" type="griddistrandom"/>
    <trip arrivalPos="40.35" depart="58598" departPos="84.37" from="nt7_nt8" id="random204_57600" to="nt12_nt11" type="griddistrandom"/>
    <trip arrivalPos="138.31" depart="58606" departPos="35.18" from="np4_nt4" id="random205_57600" to="nt6_nt5" type="griddistrandom"/>
    <trip arrivalPos="64.13" depart="58624" departPos="29.70" from="nt4_nt8" id="random206_57600" to="nt4_nt3" type="griddistrandom"/>
    <trip arrivalPos="50.64" depart="58628" departPos="25.83" from="nt8_nt12" id="random207_57600" to="nt10_nt9" type="griddistrandom"/>
    <trip arrivalPos="96.55" depart="58632" departPos="105.50" from="nt10_nt9" id="random208_57600" to="nt16_nt12" type="griddistrandom"/>
    <trip arrivalPos="112.72" depart="58634" departPos="169.29" from="nt3_nt7" id="random209_57600" to="nt7_nt3" type="griddistrandom"/>
    <trip arrivalPos="101.38" depart="58640" departPos="35.06" from="nt11_nt12" id="random210_57600" to="nt9_nt10" type="griddistrandom"/>
    <trip arrivalPos="87.95" depart="58646" departPos="85.58" from="nt5_nt9" id="random211_57600" to="nt16_nt15" type="griddistrandom"/>
    <trip arrivalPos="5.93" depart="58646" departPos="122.58" from="nt2_nt1" id="random212_57600" to="nt15_nt16" type="griddistrandom"/>
    <trip arrivalPos="17.52" depart="58648" departPos="62.52" from="np4_nt4" id="random213_57600" to="nt3_np3" type="griddistrandom"/>
    <trip arrivalPos="176.63" depart="58652" departPos="63.13" from="nt3_nt4" id="random214_57600" to="nt13_nt14" type="griddistrandom"/>
    <trip arrivalPos="59.05" depart="58654" departPos="45.81" from="nt11_nt12" id="random215_57600" to="nt14_np11" type="griddistrandom"/>
    <trip arrivalPos="25.45" depart="58657" departPos="38.40" from="nt10_nt14" id="random216_57600" to="nt10_nt11" type="griddistrandom"/>
    <trip arrivalPos="57.28" depart="58658" departPos="76.99" from="nt10_nt14" id="random217_57600" to="nt6_nt7" type="griddistrandom"/>
    <trip arrivalPos="21.19" depart="58659" departPos="154.12" from="nt10_nt11" id="random218_57600" to="nt3_nt2" type="griddistrandom"/>