<routes>
    <trip arrivalPos="87.22" depart="32405" departPos="97.84" from="nt13_nt9" id="random0_32400" to="nt13_nt9" type="griddistrandom"/>
    <trip arrivalPos="60.42" depart="32427" departPos="34.46" from="nt8_nt4" id="random1_32400" to="nt4_np4" type="griddistrandom"/>
    <trip arrivalPos="29.20" depart="32428" departPos="55.75" from="np4_nt4" id="random2_32400" to="nt8_np6" type="griddistrandom"/>
    <trip arrivalPos="158.62" depart="32436" departPos="3.82" from="np9_nt16" id="random3_32400" to="nt9_nt5" type="griddistrandom"/>
    <trip arrivalPos="111.33" depart="32437" departPos="124.71" from="nt6_nt10" id="random4_32400" to="nt9_nt10" type="griddistrandom"/>
    <trip arrivalPos="58.56" depart="32442" departPos="6.93" from="np2_nt2" id="random5_32400" to="nt8_np6" type="griddistrandom"/>
    <trip arrivalPos="92.73" depart="32446" departPos="22.18" from="np3_nt3" id="random6_32400" to="nt6_nt2" type="griddistrandom"/>
    <trip arrivalPos="46.04" depart="32448" departPos="61.94" from="nt11_nt15" id="random7_32400" to="nt13_np12" type="griddistrandom"/>
    <trip arrivalPos="146.09" depart="32450" departPos="172.39" from="nt4_nt3" id="random8_32400" to="nt2_nt1" type="griddistrandom"/>
    <trip arrivalPos="45.29" depart="32456" departPos="40.79" from="nt5_nt9" id="random9_32400" to="nt8_nt12" type="griddistrandom"/>
    <trip arrivalPos="73.54" depart="32475" departPos="40.94" from="np11_nt14" id="random10_32400" to="nt12_nt16" type="griddistrandom"/>
    <trip arrivalPos="116.08" depart="32483" departPos="176.74" from="nt10_nt6" id="random11_32400" to="nt10_nt9" type="griddistrandom"/>
    <trip arrivalPos="145.58" depart="32487" departPos="52.21" from="nt9_nt5" id="random12_32400" to="nt3_nt7" type="griddistrandom"/>
    <trip arrivalPos="60.08" depart="32489" departPos="46.72" from="np5_nt4" id="random13_32400" to="nt7_nt8" type="griddistrandom"/>
    <trip arrivalPos="66.41" depart="32496" departPos="139.25" from="nt5_nt1" id="random14_32400" to="nt16_nt15" type="griddistrandom"/>
    <trip arrivalPos="129.04" depart="32496" departPos="85.19" from="nt14_nt10" id="random15_32400" to="nt9_nt13" type="griddistrandom"/>
    <trip arrivalPos="57.90" depart="32505" departPos="2.27" from="np14_nt9" id="random16_32400" to="nt1_nt2" type="griddistrandom"/>
    <trip arrivalPos="116.16" depart="32507" departPos="97.50" from="nt5_nt1" id="random17_32400" to="nt10_nt9" type="griddistrandom"/>
    <trip arrivalPos="47.36" depart="32510" departPos="20.55" from="nt7_nt6" id="random18_32400" to="nt16_np8" type="griddistrandom"/>
    <trip arrivalPos="16.75" depart="32527" departPos="124.92" from="nt6_nt10" id="random19_32400" to="nt16_nt12" type="griddistrandom"/>
    <trip arrivalPos="56.46" depart="32528" departPos="6.03" from="np1_nt1" id="random20_32400" to="nt16_np8" type="griddistrandom"/>
    <trip arrivalPos="86.30" depart="32531" departPos="126.33" from="nt13_nt9" id="random21_32400" to="nt1_nt2" type="griddistrandom"/>
    <trip arrivalPos="109.54" depart="32535" departPos="78.34" from="nt6_nt2" id="random22_32400" to="nt10_nt9" type="griddistrandom"/>
    <trip arrivalPos="126.58" depart="32536" departPos="26.49" from="nt1_nt2" id="random23_32400" to="nt11_nt7" type="griddistrandom"/>
    <trip arrivalPos="160.25" depart="32541" departPos="160.67" from="nt8_nt7" id="random24_32400" to="nt13_nt14" type="griddistrandom"/>
    <trip arrivalPos="18.75" depart="32550" departPos="115.26" from="nt14_nt13" id="random25_32400" to="nt12_np7" type="griddistrandom"/>
    <trip arrivalPos="82.84" depart="32550" departPos="117.51" from="nt8_nt4" id="random26_32400" to="nt2_nt6" type="griddistrandom"/>
    <trip arrivalPos="151.78" depart="32557" departPos="40.35" from="np5_nt4" id="random27_32400" to="nt14_nt13" type="griddistrandom"/>
    <trip arrivalPos="48.80" depart="32559" departPos="3.70" from="np16_nt1" id="random28_32400" to="nt4_nt3" type="griddistrandom"/>
    <trip arrivalPos="44.31" depart="32564" departPos="103.06" from="nt11_nt10" id="random29_32400" to="nt10_nt6" type="griddistrandom"/>
    <trip arrivalPos="136.14" depart="32566" departPos="17.95" from="np15_nt5" id="random30_32400" to="nt2_nt1" type="griddistrandom"/>
    <trip arrivalPos="60.61" depart="32568" departPos="92.94" from="nt4_nt8" id="random31_32400" to="nt10_nt6" type="griddistrandom"/>
    <trip arrivalPos="129.44" depart="32568" departPos="136.82" from="nt14_nt15" id="random32_32400" to="nt9_nt13" type="griddistrandom"/>
    <trip arrivalPos="32.88" depart="32582" departPos="21.93" from="np8_nt16" id="random33_32400" to="nt8_nt4" type="griddistrandom"/>
    <trip arrivalPos="59.27" depart="32587" departPos="109.68" from="nt6_nt2" id="random34_32400" to="nt5_nt1" type="griddistrandom"/>
    <trip arrivalPos="46.79" depart="32594" departPos="113.94" from="nt7_nt6" id="random35_32400" to="nt3_np3" type="griddistrandom"/>
    <trip arrivalPos="54.13" depart="32599" departPos="37.48" from="nt6_nt5" id="random36_32400" to="nt12_nt11" type="griddistrandom"/>
    <trip arrivalPos="13.60" depart="32603" departPos="131.46" from="nt6_nt7" id="random37_32400" to="nt6_nt5" type="griddistrandom"/>
    <trip arrivalPos="36.48" depart="32619" departPos="142.43" from="nt5_nt6" id="random38_32400" to="nt7_nt11" type="griddistrandom"/>
    <trip arrivalPos="53.45" depart="32619" departPos="106.97" from="nt7_nt3" id="random39_32400" to="nt1_np1" type="griddistrandom"/>
    <trip arrivalPos="81.00" depart="32621" departPos="141.01" from="nt2_nt1" id="random40_32400" to="nt7_nt6" type="griddistrandom"/>
    <trip arrivalPos="42.60" depart="32625" departPos="6.16" from="nt6_nt5" id="random41_32400" to="nt13_np13" type="griddistrandom"/>
    <trip arrivalPos="65.96" depart="32627" departPos="18.30" from="np3_nt3" id="random42_32400" to="nt12_np7" type="griddistrandom"/>
    <trip arrivalPos="116.03" depart="32631" departPos="124.41" from="nt11_nt15" id="random43_32400" to="nt1_nt5" type="griddistrandom"/>
    <trip arrivalPos="34.20" depart="32635" departPos="89.53" from="nt11_nt10" id="random44_32400" to="nt1_np1" type="griddistrandom"/>
    <trip arrivalPos="95.21" depart="32639" departPos="16.21" from="nt7_nt8" id="random45_32400" to="nt9_nt10" type="griddistrandom"/>
    <trip arrivalPos="51.07" depart="32647" departPos="62.91" from="np6_nt8" id="random46_32400" to="nt13_np13" type="griddistrandom"/>
    <trip arrivalPos="48.14" depart="32649" departPos="159.85" from="nt9_nt5" id="random47_32400" to="nt12_np7" type="griddistrandom"/>
    <trip arrivalPos="13.92" depart="32653" departPos="137.11" from="nt12_nt16" id="random48_32400" to="nt13_np12" type="griddistrandom"/>
    <trip arrivalPos="91.16" depart="32654" departPos="4.85" from="np3_nt3" id="random49_32400" to="nt10_nt14" type="griddistrandom"/>
    <trip arrivalPos="55.64" depart="32656" departPos="8.14" from="nt9_nt5" id="random50_32400" to="nt4_np4" type="griddistrandom"/>
    <trip arrivalPos="13.66" depart="32665" departPos="24.53" from="nt5_nt9" id="random51_32400" to="nt11_nt7" type="griddistrandom"/>
    <trip arrivalPos="148.77" depart="32675" departPos="123.62" from="nt16_nt12" id="random52_32400" to="nt11_nt7" type="griddistrandom"/>
    <trip arrivalPos="68.52" depart="32676" departPos="105.73" from="nt9_nt5" id="random53_32400" to="nt12_nt16" type="griddistrandom"/>
    <trip arrivalPos="37.83" depart="32682" departPos="40.43" from="nt7_nt6" id="random54_32400" to="nt16_nt12" type="griddistrandom"/>
    <trip arrivalPos="57.49" depart="32690" departPos="133.29" from="nt9_nt10" id="random55_32400" to="nt11_nt7" type="griddistrandom"/>
    <trip arrivalPos="120.58" depart="32693" departPos="143.30" from="nt7_nt6" id="random56_32400" to="nt5_nt9" type="griddistrandom"/>
    <trip arrivalPos="69.79" depart="32694" departPos="182.14" from="nt11_nt10" id="random57_32400" to="nt16_nt12" type="griddistrandom"/>
    <trip arrivalPos="51.21" depart="32705" departPos="49.38" from="nt6_nt10" id="random58_32400" to="nt1_np1" type="griddistrandom"/>
    <trip arrivalPos="43.64" depart="32717" departPos="35.84" from="nt12_nt16" id="random59_32400" to="nt16_np8" type="griddistrandom"/>
    <trip arrivalPos="163.82" depart="32717" departPos="75.23" from="nt14_nt13" id="random60_32400" to="nt15_nt14" type="griddistrandom"/>
    <trip arrivalPos="25.16" depart="32719" departPos="76.43" from="nt15_nt11" id="random61_32400" to="nt14_nt13" type="griddistrandom"/>
    <trip arrivalPos="118.13" depart="32722" departPos="53.79" from="nt4_nt3" id="random62_32400" to="nt10_nt6" type="griddistrandom"/>
    <trip arrivalPos="3.98" depart="32729" departPos="11.68" from="nt13_nt14" id="random63_32400" to="nt8_nt4" type="griddistrandom"/>
    <trip arrivalPos="84.52" depart="32732" departPos="139.06" from="nt9_nt13" id="random64_32400" to="nt9_nt13" type="griddistrandom"/>
    <trip arrivalPos="6.99" depart="32732" departPos="158.75" from="nt14_nt13" id="random65_32400" to="nt8_np6" type="griddistrandom"/>
    <trip arrivalPos="81.95" depart="32734" departPos="23.66" from="nt10_nt6" id="random66_32400" to="nt4_nt3" type="griddistrandom"/>
    <trip arrivalPos="148.18" depart="32734" departPos="36.80" from="np13_nt13" id="random67_32400" to="nt5_nt1" type="griddistrandom"/>
    <trip arrivalPos="141.80" depart="32736" departPos="15.88" from="nt6_nt5" id="random68_32400" to="nt6_nt2" type="griddistrandom"/>
    <trip arrivalPos="46.66" depart="32739" departPos="143.53" from="nt8_nt4" id="random69_32400" to="nt11_nt7" type="griddistrandom"/>
    <trip arrivalPos="1.69" depart="32740" departPos="149.80" from="nt2_nt3" id="random70_32400" to="nt1_nt5" type="griddistrandom"/>
    <trip arrivalPos="29.85" depart="32750" departPos="151.76" from="nt10_nt9" id="random71_32400" to="nt9_np14" type="griddistrandom"/>
    <trip arrivalPos="44.91" depart="32755" departPos="172.24" from="nt12_nt8" id="random72_32400" to="nt5_nt1" type="griddistrandom"/>
    <trip arrivalPos="131.58" depart="32763" departPos="8.53" from="np15_nt5" id="random73_32400" to="nt2_nt6" type="griddistrandom"/>
    <trip arrivalPos="120.61" depart="32764" departPos="8.12" from="np3_nt3" id="random74_32400" to="nt4_nt8" type="griddistrandom"/>
    <trip arrivalPos="130.19" depart="32765" departPos="8.32" from="nt9_nt10" id="random75_32400" to="nt11_nt15" type="griddistrandom"/>
    <trip arrivalPos="54.37" depart="32768" departPos="109.02" from="nt6_nt2" id="random76_32400" to="nt4_np5" type="griddistrandom"/>
    <trip arrivalPos="154.87" depart="32768" departPos="135.99" from="nt1_nt5" id="random77_32400" to="nt4_nt3" type="griddistrandom"/>
    <trip arrivalPos="167.89" depart="32788" departPos="128.91" from="nt3_nt4" id="random78_32400" to="nt10_nt14" type="griddistrandom"/>
    <trip arrivalPos="34.50" depart="32797" departPos="119.43" from="nt11_nt10" id="random79_32400" to="nt3_np3" type="griddistrandom"/>
    <trip arrivalPos="58.70" depart="32802" departPos="87.83" from="nt10_nt11" id="random80_32400" to="nt15_nt14" type="griddistrandom"/>
    <trip arrivalPos="57.55" depart="32804" departPos="99.37" from="nt13_nt14" id="random81_32400" to="nt7_nt3" type="griddistrandom"/>
    <trip arrivalPos="20.61" depart="32813" departPos="19.09" from="nt3_nt4" id="random82_32400" to="nt9_nt5" type="griddistrandom"/>
    <trip arrivalPos="30.28" depart="32815" departPos="168.67" from="nt9_nt13" id="random83_32400" to="nt14_nt15" type="griddistrandom"/>
    <trip arrivalPos="140.50" depart="32815" departPos="63.91" from="nt5_nt9" id="random84_32400" to="nt12_nt11" type="griddistrandom"/>
    <trip arrivalPos="51.66" depart="32817" departPos="10.44" from="np8_nt16" id="random85_32400" to="nt1_np16" type="griddistrandom"/>
    <trip arrivalPos="53.15" depart="32820" departPos="144.14" from="nt11_nt15" id="random86_32400" to="nt13_np12" type="griddistrandom"/>
    <trip arrivalPos="106.82" depart="32835" departPos="19.40" from="nt16_nt15" id="random87_32400" to="nt6_nt2" type="griddistrandom"/>
    <trip arrivalPos="70.56" depart="32836" departPos="171.54" from="nt11_nt10" id="random88_32400" to="nt4_np5" type="griddistrandom"/>
    <trip arrivalPos="157.76" depart="32839" departPos="83.38" from="nt6_nt2" id="random89_32400" to="nt8_nt4" type="griddistrandom"/>
    <trip arrivalPos="153.97" depart="32841" departPos="152.36" from="nt15_nt11" id="random90_32400" to="nt8_nt7" type="griddistrandom"/>
    <trip arrivalPos="92.44" depart="32846" departPos="14.13" from="nt1_nt5" id="random91_32400" to="nt10_nt6" type="griddistrandom"/>
    <trip arrivalPos="13.24" depart="32847" departPos="48.35" from="nt5_nt1" id="random92_32400" to="nt2_np2" type="griddistrandom"/>
    <trip arrivalPos="108.82" depart="32848" departPos="29.72" from="np10_nt15" id="random93_32400" to="nt3_nt2" type="griddistrandom"/>
    <trip arrivalPos="9.47" depart="32849" departPos="11.50" from="np15_nt5" id="random94_32400" to="nt1_np16" type="griddistrandom"/>
    <trip arrivalPos="48.32" depart="32850" departPos="4.68" from="nt10_nt9" id="random95_32400" to="nt11_nt12" type="griddistrandom"/>
    <trip arrivalPos="49.49" depart="32853" departPos="53.50" from="nt2_nt3" id="random96_32400" to="nt6_nt2" type="griddistrandom"/>
    <trip arrivalPos="107.43" depart="32855" departPos="95.74" from="nt13_nt14" id="random97_32400" to="nt3_nt7" type="griddistrandom"/>
    <trip arrivalPos="15.72" depart="32856" departPos="41.03" from="np13_nt13" id="random98_32400" to="nt4_np5" type="griddistrandom"/>
    <trip arrivalPos="4.87" depart="32857" departPos="93.72" from="nt3_nt2" id="random99_32400" to="nt7_nt6" type="griddistrandom"/>
    <trip arrivalPos="58.89" depart="32858" departPos="23.75" from="np5_nt4" id="random100_32400" to="nt11_nt12" type="griddistrandom"/>
    <trip arrivalPos="4.91" depart="32861" departPos="70.70" from="nt2_nt1" id="random101_32400" to="nt3_nt2" type="griddistrandom"/>
    <trip arrivalPos="106.85" depart="32865" departPos="55.24" from="np7_nt12" id="random102_32400" to="nt6_nt2" type="griddistrandom"/>
    <trip arrivalPos="39.17" depart="32872" departPos="25.02" from="nt12_nt11" id="random103_32400" to="nt15_nt14" type="griddistrandom"/>
    <trip arrivalPos="24.89" depart="32872" departPos="51.90" from="np1_nt1" id="random104_32400" to="nt5_np15" type="griddistrandom"/>
    <trip arrivalPos="59.40" depart="32873" departPos="141.12" from="nt11_nt15" id="random105_32400" to="nt16_np8" type="griddistrandom"/>
    <trip arrivalPos="18.03" depart="32873" departPos="41.35" from="np15_nt5" id="random106_32400" to="nt16_nt15" type="griddistrandom"/>
    <trip arrivalPos="88.48" depart="32879" departPos="46.84" from="nt11_nt12" id="random107_32400" to="nt11_nt7" type="griddistrandom"/>
    <trip arrivalPos="112.52" depart="32886" departPos="19.16" from="np9_nt16" id="random108_32400" to="nt7_nt6" type="griddistrandom"/>
    <trip arrivalPos="16.30" depart="32898" departPos="58.40" from="np16_nt1" id="random109_32400" to="nt11_nt15" type="griddistrandom"/>
    <trip arrivalPos="25.90" depart="32913" departPos="95.99" from="nt16_nt12" id="random110_32400" to="nt16_nt15" type="griddistrandom"/>
    <trip arrivalPos="81.00" depart="32915" departPos="88.15" from="nt10_nt9" id="random111_32400" to="nt9_nt13" type="griddistrandom"/>
    <trip arrivalPos="117.43" depart="32917" departPos="70.54" from="nt13_nt9" id="random112_32400" to="nt10_nt14" type="griddistrandom"/>
    <trip arrivalPos="21.55" depart="32918" departPos="173.42" from="nt6_nt10" id="random113_32400" to="nt7_nt3" type="griddistrandom"/>
    <trip arrivalPos="166.01" depart="32927" departPos="11.33" from="np5_nt4" id="random114_32400" to="nt11_nt15" type="griddistrandom"/>
    <trip arrivalPos="94.04" depart="32930" departPos="37.23" from="np11_nt14" id="random115_32400" to="nt5_nt9" type="griddistrandom"/>
    <trip arrivalPos="14.69" depart="32936" departPos="34.16" from="np11_nt14" id="random116_32400" to="nt3_np3" type="griddistrandom"/>
    <trip arrivalPos="39.81" depart="32936" departPos="0.66" from="np11_nt14" id="random117_32400" to="nt15_np10" type="griddistrandom"/>
    <trip arrivalPos="43.72" depart="32940" departPos="121.95" from="nt5_nt6" id="random118_32400" to="nt3_nt7" type="griddistrandom"/>
    <trip arrivalPos="15.84" depart="32941" departPos="102.24" from="nt12_nt8" id="random119_32400" to="nt4_np5" type="griddistrandom"/>
    <trip arrivalPos="124.61" depart="32944" departPos="49.51" from="np8_nt16" id="random120_32400" to="nt10_nt11" type="griddistrandom"/>
    <trip arrivalPos="1.87" depart="32951" departPos="34.16" from="nt6_nt7" id="random121_32400" to="nt8_nt12" type="griddistrandom"/>
    <trip arrivalPos="167.97" depart="32953" departPos="142.86" from="nt10_nt9" id="random122_32400" to="nt8_nt7" type="griddistrandom"/>
    <trip arrivalPos="60.01" depart="32964" departPos="7.08" from="nt6_nt5" id="random123_32400" to="nt16_np9" type="griddistrandom"/>
    <trip arrivalPos="40.25" depart="32971" departPos="172.27" from="nt5_nt6" id="random124_32400" to="nt16_np8" type="griddistrandom"/>
    <trip arrivalPos="149.13" depart="32975" departPos="32.54" from="nt11_nt15" id="random125_32400" to="nt13_nt9" type="griddistrandom"/>
    <trip arrivalPos="31.71" depart="32975" departPos="167.83" from="nt8_nt4" id="random126_32400" to="nt13_nt9" type="griddistrandom"/>
    <trip arrivalPos="101.61" depart="32982" departPos="35.58" from="nt9_nt13" id="random127_32400" to="nt4_nt3" type="griddistrandom"/>
    <trip arrivalPos="140.17" depart="32996" departPos="22.19" from="np2_nt2" id="random128_32400" to="nt13_nt14" type="griddistrandom"/>
    <trip arrivalPos="121.45" depart="32997" departPos="16.02" from="nt7_nt8" id="random129_32400" to="nt3_nt4" type="griddistrandom"/>
    <trip arrivalPos="59.60" depart="33001" departPos="0.41" from="nt7_nt3" id="random130_32400" to="nt2_nt3" type="griddistrandom"/>
    <trip arrivalPos="33.93" depart="33004" departPos="33.14" from="np12_nt13" id="random131_32400" to="nt3_np3" type="griddistrandom"/>
    <trip arrivalPos="40.25" depart="33010" departPos="64.82" from="nt6_nt5" id="random132_32400" to="nt4_np4" type="griddistrandom"/>
    <trip arrivalPos="33.68" depart="33014" departPos="172.77" from="nt4_nt8" id="random133_32400" to="nt15_np10" type="griddistrandom"/>
    <trip arrivalPos="41.75" depart="33015" departPos="118.55" from="nt12_nt8" id="random134_32400" to="nt3_np3" type="griddistrandom"/>
    <trip arrivalPos="60.42" depart="33023" departPos="9.34" from="nt9_nt10" id="random135_32400" to="nt9_np14" type="griddistrandom"/>
    <trip arrivalPos="49.19" depart="33027" departPos="34.63" from="np13_nt13" id="random136_32400" to="nt13_nt9" type="griddistrandom"/>
    <trip arrivalPos="57.71" depart="33055" departPos="62.31" from="np13_nt13" id="random137_32400" to="nt4_nt8" type="griddistrandom"/>
    <trip arrivalPos="106.71" depart="33055" departPos="110.01" from="nt10_nt6" id="random138_32400" to="nt10_nt6" type="griddistrandom"/>
    <trip arrivalPos="5.05" depart="33065" departPos="55.19" from="nt12_nt16" id="random139_32400" to="nt5_nt1" type="griddistrandom"/>
    <trip arrivalPos="37.88" depart="33068" departPos="101.31" from="nt14_nt13" id="random140_32400" to="nt9_np14" type="griddistrandom"/>
    <trip arrivalPos="63.64" depart="33076" departPos="45.67" from="nt15_nt14" id="random141_32400" to="nt9_np14" type="griddistrandom"/>
    <trip arrivalPos="143.04" depart="33077" departPos="5.11" from="nt2_nt1" id="random142_32400" to="nt14_nt10" type="griddistrandom"/>
    <trip arrivalPos="62.71" depart="33080" departPos="136.37" from="nt5_nt1" id="random143_32400" to="nt16_nt12" type="griddistrandom"/>
    <trip arrivalPos="163.97" depart="33087" departPos="123.34" from="nt3_nt4" id="random144_32400" to="nt14_nt15" type="griddistrandom"/>
    <trip arrivalPos="35.36" depart="33088" departPos="38.74" from="np15_nt5" id="random145_32400" to="nt9_nt5" type="griddistrandom"/>
    <trip arrivalPos="100.11" depart="33092" departPos="24.68" from="np1_nt1" id="random146_32400" to="nt11_nt15" type="griddistrandom"/>
    <trip arrivalPos="95.65" depart="33099" departPos="182.17" from="nt7_nt8" id="random147_32400" to="nt4_nt3" type="griddistrandom"/>
    <trip arrivalPos="3.31" depart="33102" departPos="159.31" from="nt7_nt6" id="random148_32400" to="nt4_np4" type="griddistrandom"/>
    <trip arrivalPos="48.26" depart="33107" departPos="174.12" from="nt6_nt2" id="random149_32400" to="nt4_nt8" type="griddistrandom"/>
    <trip arrivalPos="14.44" depart="33113" departPos="26.90" from="nt1_nt2" id="random150_32400" to="nt8_np6" type="griddistrandom"/>
    <trip arrivalPos="112.09" depart="33115" departPos="9.79" from="np14_nt9" id="random151_32400" to="nt9_nt13" type="griddistrandom"/>
    <trip arrivalPos="51.76" depart="33120" departPos="43.37" from="nt10_nt6" id="random152_32400" to="nt15_np10" type="griddistrandom"/>
    <trip arrivalPos="88.16" depart="33137" departPos="75.80" from="nt4_nt8" id="random153_32400" to="nt11_nt15" type="griddistrandom"/>
    <trip arrivalPos="130.32" depart="33142" departPos="29.60" from="np13_nt13" id="random154_32400" to="nt5_nt9" type="griddistrandom"/>
    <trip arrivalPos="97.24" depart="33145" departPos="112.72" from="nt14_nt15" id="random155_32400" to="nt8_nt12" type="griddistrandom"/>
    <trip arrivalPos="141.73" depart="33156" departPos="81.42" from="nt7_nt3" id="random156_32400" to="nt5_nt6" type="griddistrandom"/>
    <trip arrivalPos="66.63" depart="33160" departPos="128.42" from="nt11_nt12" id="random157_32400" to="nt1_nt5" type="griddistrandom"/>
    <trip arrivalPos="79.98" depart="33168" departPos="114.08" from="nt6_nt10" id="random158_32400" to="nt12_nt16" type="griddistrandom"/>
    <trip arrivalPos="130.63" depart="33171" departPos="72.32" from="nt3_nt2" id="random159_32400" to="nt10_nt6" type="griddistrandom"/>
    <trip arrivalPos="2.22" depart="33178" departPos="50.38" from="np12_nt13" id="random160_32400" to="nt9_np14" type="griddistrandom"/>
    <trip arrivalPos="67.87" depart="33178" departPos="177.71" from="nt9_nt5" id="random161_32400" to="nt7_nt8" type="griddistrandom"/>
    <trip arrivalPos="87.30" depart="33181" departPos="146.90" from="nt8_nt4" id="random162_32400" to="nt11_nt15" type="griddistrandom"/>
    <trip arrivalPos="6.40" depart="33188" departPos="7.84" from="np2_nt2" id="random163_32400" to="nt11_nt12" type="griddistrandom"/>
    <trip arrivalPos="81.29" depart="33194" departPos="127.64" from="nt9_nt5" id="random164_32400" to="nt9_nt10" type="griddistrandom"/>
    <trip arrivalPos="42.05" depart="33195" departPos="181.59" from="nt2_nt3" id="random165_32400" to="nt6_nt5" type="griddistrandom"/>
    <trip arrivalPos="134.72" depart="33196" departPos="41.40" from="nt5_nt1" id="random166_32400" to="nt3_nt2" type="griddistrandom"/>
    <trip arrivalPos="25.64" depart="33199" departPos="6.23" from="nt11_nt12" id="random167_32400" to="nt14_np11" type="griddistrandom"/>
    <trip arrivalPos="10.61" depart="33210" departPos="118.16" from="nt6_nt2" id="random168_32400" to="nt11_nt12" type="griddistrandom"/>
    <trip arrivalPos="0.82" depart="33213" departPos="47.43" from="nt10_nt6" id="random169_32400" to="nt16_nt15" type="griddistrandom"/>
    <trip arrivalPos="143.65" depart="33221" departPos="142.52" from="nt1_nt2" id="random170_32400" to="nt11_nt7" type="griddistrandom"/>
    <trip arrivalPos="123.51" depart="33221" departPos="150.27" from="nt7_nt11" id="random171_32400" to="nt2_nt1" type="griddistrandom"/>
    <trip arrivalPos="158.02" depart="33225" departPos="134.44" from="nt11_nt12" id="random172_32400" to="nt7_nt3" type="griddistrandom"/>
    <trip arrivalPos="97.93" depart="33244" departPos="79.01" from="nt4_nt8" id="random173_32400" to="nt15_nt16" type="griddistrandom"/>
    <trip arrivalPos="58.47" depart="33251" departPos="184.06" from="nt5_nt6" id="random174_32400" to="nt7_nt8" type="griddistrandom"/>
    <trip arrivalPos="6.65" depart="33254" departPos="122.94" from="nt12_nt11" id="random175_32400" to="nt12_nt11" type="griddistrandom"/>
    <trip arrivalPos="149.38" depart="33263" departPos="156.98" from="nt11_nt10" id="random176_32400" to="nt7_nt3" type="griddistrandom"/>
    <trip arrivalPos="30.86" depart="33263" departPos="127.32" from="nt2_nt6" id="random177_32400" to="nt2_np2" type="griddistrandom"/>
    <trip arrivalPos="106.38" depart="33267" departPos="179.53" from="nt5_nt6" id="random178_32400" to="nt8_nt4" type="griddistrandom"/>
    <trip arrivalPos="132.63" depart="33268" departPos="6.80" from="np6_nt8" id="random179_32400" to="nt14_nt15" type="griddistrandom"/>
    <trip arrivalPos="148.61" depart="33279" departPos="64.60" from="nt10_nt9" id="random180_32400" to="nt16_nt12" type="griddistrandom"/>
    <trip arrivalPos="59.03" depart="33283" departPos="72.16" from="np10_nt15" id="random181_32400" to="nt16_nt15" type="griddistrandom"/>
    <trip arrivalPos="16.09" depart="33286" departPos="34.99" from="np10_nt15" id="random182_32400" to="nt2_nt6" type="griddistrandom"/>
    <trip arrivalPos="86.06" depart="33289" departPos="62.88" from="np2_nt2" id="random183_32400" to="nt6_nt2" type="griddistrandom"/>
    <trip arrivalPos="160.86" depart="33290" departPos="123.27" from="nt5_nt1" id="random184_32400" to="nt13_nt14" type="griddistrandom"/>
    <trip arrivalPos="36.21" depart="33293" departPos="65.76" from="nt9_nt5" id="random185_32400" to="nt4_np5" type="griddistrandom"/>
    <trip arrivalPos="28.49" depart="33298" departPos="47.01" from="np2_nt2" id="random186_32400" to="nt6_nt5" type="griddistrandom"/>
    <trip arrivalPos="59.35" depart="33303" departPos="35.85" from="nt5_nt9" id="random187_32400" to="nt9_nt10" type="griddistrandom"/>
    <trip arrivalPos="159.77" depart="33304" departPos="161.61" from="nt12_nt16" id="random188_32400" to="nt8_nt7" type="griddistrandom"/>
    <trip arrivalPos="88.76" depart="33309" departPos="81.47" from="nt11_nt7" id="random189_32400" to="nt14_nt13" type="griddistrandom"/>
    <trip arrivalPos="43.79" depart="33321" departPos="94.78" from="nt3_nt4" id="random190_32400" to="nt5_nt1" type="griddistrandom"/>
    <trip arrivalPos="9.85" depart="33324" departPos="119.46" from="nt2_nt6" id="random191_32400" to="nt1_np16" type="griddistrandom"/>
    <trip arrivalPos="54.17" depart="33333" departPos="150.87" from="nt4_nt3" id="random192_32400" to="nt6_nt5" type="griddistrandom"/>
    <trip arrivalPos="119.10" depart="33334" departPos="91.64" from="nt9_nt13" id="random193_32400" to="nt3_nt4" type="griddistrandom"/>
    <trip arrivalPos="71.51" depart="33336" departPos="114.73" from="nt16_nt12" id="random194_32400" to="nt9_nt5" type="griddistrandom"/>
    <trip arrivalPos="19.54" depart="33344" departPos="94.73" from="nt7_nt8" id="random195_32400" to="nt10_nt9" type="griddistrandom"/>
    <trip arrivalPos="157.52" depart="33366" departPos="47.94" from="np9_nt16" id="random196_32400" to="nt12_nt16" type="griddistrandom"/>
    <trip arrivalPos="4.74" depart="33368" departPos="100.26" from="nt12_nt8" id="random197_32400" to="nt16_np9" type="griddistrandom"/>
    <trip arrivalPos="76.39" depart="33368" departPos="16.65" from="np2_nt2" id="random198_32400" to="nt1_nt5" type="griddistrandom"/>
    <trip arrivalPos="58.26" depart="33370" departPos="165.57" from="nt9_nt10" id="random199_32400" to="nt15_nt16" type="griddistrandom"/>
    <trip arrivalPos="51.56" depart="33375" departPos="60.66" from="np9_nt16" id="random200_32400" to="nt9_np14" type="griddistrandom"/>
    <trip arrivalPos="69.75" depart="33388" departPos="27.84" from="np2_nt2" id="random201_32400" to="nt14_nt13" type="griddistrandom"/>
    <trip arrivalPos="44.63" depart="33395" departPos="119.33" from="nt5_nt9" id="random202_32400" to="nt16_np8" type="griddistrandom"/>
    <trip arrivalPos="48.64" depart="33397" departPos="175.36" from="nt3_nt2" id="random203_32400" to="nt16_np8" type="griddistrandom"/>
    <trip arrivalPos="40.35" depart="33398" departPos="84.37" from="nt7_nt8" id="random204_32400" to="nt12_nt11" type="griddistrandom"/>
    <trip arrivalPos="138.31" depart="33406" departPos="35.18" from="np4_nt4" id="random205_32400" to="nt6_nt5" type="griddistrandom"/>
    <trip arrivalPos="64.13" depart="33424" departPos="29.70" from="nt4_nt8" id="random206_32400" to="nt4_nt3" type="griddistrandom"/>
    <trip arrivalPos="50.64" depart="33428" departPos="25.83" from="nt8_nt12" id="random207_32400" to="nt10_nt9" type="griddistrandom"/>
    <trip arrivalPos="96.55" depart="33432" departPos="105.50" from="nt10_nt9" id="random208_32400" to="nt16_nt12" type="griddistrandom"/>
    <trip arrivalPos="112.72" depart="33434" departPos="169.29" from="nt3_nt7" id="random209_32400" to="nt7_nt3" type="griddistrandom"/>
    <trip arrivalPos="101.38" depart="33440" departPos="35.06" from="nt11_nt12" id="random210_32400" to="nt9_nt10" type="griddistrandom"/>
    <trip arrivalPos="87.95" depart="33446" departPos="85.58" from="nt5_nt9" id="random211_32400" to="nt16_nt15" type="griddistrandom"/>
    <trip arrivalPos="5.93" depart="33446" departPos="122.58" from="nt2_nt1" id="random212_32400" to="nt15_nt16" type="griddistrandom"/>
    <trip arrivalPos="17.52" depart="33448" departPos="62.52" from="np4_nt4" id="random213_32400" to="nt3_np3" type="griddistrandom"/>
    <trip arrivalPos="176.63" depart="33452" departPos="63.13" from="nt3_nt4" id="random214_32400" to="nt13_nt14" type="griddistrandom"/>
    <trip arrivalPos="59.05" depart="33454" departPos="45.81" from="nt11_nt12" id="random215_32400" to="nt14_np11" type="griddistrandom"/>
    <trip arrivalPos="25.45" depart="33457" departPos="38.40" from="nt10_nt14" id="random216_32400" to="nt10_nt11" type="griddistrandom"/>
    <trip arrivalPos="57.28" depart="33458" departPos="76.99" from="nt10_nt14" id="random217_32400" to="nt6_nt7" type="griddistrandom"/>
    <trip arrivalPos="21.19" depart="33459" departPos="154.12" from="nt10_nt11" id="random218_32400" to="nt3_nt2" type="griddistrandom"/>