<routes>
    <trip arrivalPos="87.22" depart="61205" departPos="97.84" from="nt13_nt9" id="random0_61200" to="nt13_nt9" type="griddistrandom"/>
    <trip arrivalPos="60.42" depart="61227" departPos="34.46" from="nt8_nt4" id="random1_61200" to="nt4_np4" type="griddistrandom"/>
    <trip arrivalPos="29.20" depart="61228" departPos="55.75" from="np4_nt4" id="random2_61200" to="nt8_np6" type="griddistrandom"/>
    <trip arrivalPos="158.62" depart="61236" departPos="3.82" from="np9_nt16" id="random3_61200" to="nt9_nt5" type="griddistrandom"/>
    <trip arrivalPos="111.33" depart="61237" departPos="124.71" from="nt6_nt10" id="random4_61200" to="nt9_nt10" type="griddistrandom"/>
    <trip arrivalPos="58.56" depart="61242" departPos="6.93" from="np2_nt2" id="random5_61200" to="nt8_np6" type="griddistrandom"/>
    <trip arrivalPos="92.73" depart="61246" departPos="22.18" from="np3_nt3" id="random6_61200" to="nt6_nt2" type="griddistrandom"/>
    <trip arrivalPos="46.04" depart="61248" departPos="61.94" from="nt11_nt15" id="random7_61200" to="nt13_np12" type="griddistrandom"/>
    <trip arrivalPos="146.09" depart="61250" departPos="172.39" from="nt4_nt3" id="random8_61200" to="nt2_nt1" type="griddistrandom"/>
    <trip arrivalPos="45.29" depart="61256" departPos="40.79" from="nt5_nt9" id="random9_61200" to="nt8_nt12" type="griddistrandom"/>
    <trip arrivalPos="73.54" depart="61275" departPos="40.94" from="np11_nt14" id="random10_61200" to="nt12_nt16" type="griddistrandom"/>
    <trip arrivalPos="116.08" depart="61283" departPos="176.74" from="nt10_nt6" id="random11_61200" to="nt10_nt9" type="griddistrandom"/>
    <trip arrivalPos="145.58" depart="61287" departPos="52.21" from="nt9_nt5" id="random12_61200" to="nt3_nt7" type="griddistrandom"/>
    <trip arrivalPos="60.08" depart="61289" departPos="46.72" from="np5_nt4" id="random13_61200" to="nt7_nt8" type="griddistrandom"/>
    <trip arrivalPos="66.41" depart="61296" departPos="139.25" from="nt5_nt1" id="random14_61200" to="nt16_nt15" type="griddistrandom"/>
    <trip arrivalPos="129.04" depart="61296" departPos="85.19" from="nt14_nt10" id="random15_61200" to="nt9_nt13" type="griddistrandom"/>
    <trip arrivalPos="57.90" depart="61305" departPos="2.27" from="np14_nt9" id="random16_61200" to="nt1_nt2" type="griddistrandom"/>
    <trip arrivalPos="116.16" depart="61307" departPos="97.50" from="nt5_nt1" id="random17_61200" to="nt10_nt9" type="griddistrandom"/>
    <trip arrivalPos="47.36" depart="61310" departPos="20.55" from="nt7_nt6" id="random18_61200" to="nt16_np8" type="griddistrandom"/>
    <trip arrivalPos="16.75" depart="61327" departPos="124.92" from="nt6_nt10" id="random19_61200" to="nt16_nt12" type="griddistrandom"/>
    <trip arrivalPos="56.46" depart="61328" departPos="6.03" from="np1_nt1" id="random20_61200" to="nt16_np8" type="griddistrandom"/>
    <trip arrivalPos="86.30" depart="61331" departPos="126.33" from="nt13_nt9" id="random21_61200" to="nt1_nt2" type="griddistrandom"/>
    <trip arrivalPos="109.54" depart="61335" departPos="78.34" from="nt6_nt2" id="random22_61200" to="nt10_nt9" type="griddistrandom"/>
    <trip arrivalPos="126.58" depart="61336" departPos="26.49" from="nt1_nt2" id="random23_61200" to="nt11_nt7" type="griddistrandom"/>
    <trip arrivalPos="160.25" depart="61341" departPos="160.67" from="nt8_nt7" id="random24_61200" to="nt13_nt14" type="griddistrandom"/>
    <trip arrivalPos="18.75" depart="61350" departPos="115.26" from="nt14_nt13" id="random25_61200" to="nt12_np7" type="griddistrandom"/>
    <trip arrivalPos="82.84" depart="61350" departPos="117.51" from="nt8_nt4" id="random26_61200" to="nt2_nt6" type="griddistrandom"/>
    <trip arrivalPos="151.78" depart="61357" departPos="40.35" from="np5_nt4" id="random27_61200" to="nt14_nt13" type="griddistrandom"/>
    <trip arrivalPos="48.80" depart="61359" departPos="3.70" from="np16_nt1" id="random28_61200" to="nt4_nt3" type="griddistrandom"/>
    <trip arrivalPos="44.31" depart="61364" departPos="103.06" from="nt11_nt10" id="random29_61200" to="nt10_nt6" type="griddistrandom"/>
    <trip arrivalPos="136.14" depart="61366" departPos="17.95" from="np15_nt5" id="random30_61200" to="nt2_nt1" type="griddistrandom"/>
    <trip arrivalPos="60.61" depart="61368" departPos="92.94" from="nt4_nt8" id="random31_61200" to="nt10_nt6" type="griddistrandom"/>
    <trip arrivalPos="129.44" depart="61368" departPos="136.82" from="nt14_nt15" id="random32_61200" to="nt9_nt13" type="griddistrandom"/>
    <trip arrivalPos="32.88" depart="61382" departPos="21.93" from="np8_nt16" id="random33_61200" to="nt8_nt4" type="griddistrandom"/>
    <trip arrivalPos="59.27" depart="61387" departPos="109.68" from="nt6_nt2" id="random34_61200" to="nt5_nt1" type="griddistrandom"/>
    <trip arrivalPos="46.79" depart="61394" departPos="113.94" from="nt7_nt6" id="random35_61200" to="nt3_np3" type="griddistrandom"/>
    <trip arrivalPos="54.13" depart="61399" departPos="37.48" from="nt6_nt5" id="random36_61200" to="nt12_nt11" type="griddistrandom"/>
    <trip arrivalPos="13.60" depart="61403" departPos="131.46" from="nt6_nt7" id="random37_61200" to="nt6_nt5" type="griddistrandom"/>
    <trip arrivalPos="36.48" depart="61419" departPos="142.43" from="nt5_nt6" id="random38_61200" to="nt7_nt11" type="griddistrandom"/>
    <trip arrivalPos="53.45" depart="61419" departPos="106.97" from="nt7_nt3" id="random39_61200" to="nt1_np1" type="griddistrandom"/>
    <trip arrivalPos="81.00" depart="61421" departPos="141.01" from="nt2_nt1" id="random40_61200" to="nt7_nt6" type="griddistrandom"/>
    <trip arrivalPos="42.60" depart="61425" departPos="6.16" from="nt6_nt5" id="random41_61200" to="nt13_np13" type="griddistrandom"/>
    <trip arrivalPos="65.96" depart="61427" departPos="18.30" from="np3_nt3" id="random42_61200" to="nt12_np7" type="griddistrandom"/>
    <trip arrivalPos="116.03" depart="61431" departPos="124.41" from="nt11_nt15" id="random43_61200" to="nt1_nt5" type="griddistrandom"/>
    <trip arrivalPos="34.20" depart="61435" departPos="89.53" from="nt11_nt10" id="random44_61200" to="nt1_np1" type="griddistrandom"/>
    <trip arrivalPos="95.21" depart="61439" departPos="16.21" from="nt7_nt8" id="random45_61200" to="nt9_nt10" type="griddistrandom"/>
    <trip arrivalPos="51.07" depart="61447" departPos="62.91" from="np6_nt8" id="random46_61200" to="nt13_np13" type="griddistrandom"/>
    <trip arrivalPos="48.14" depart="61449" departPos="159.85" from="nt9_nt5" id="random47_61200" to="nt12_np7" type="griddistrandom"/>
    <trip arrivalPos="13.92" depart="61453" departPos="137.11" from="nt12_nt16" id="random48_61200" to="nt13_np12" type="griddistrandom"/>
    <trip arrivalPos="91.16" depart="61454" departPos="4.85" from="np3_nt3" id="random49_61200" to="nt10_nt14" type="griddistrandom"/>
    <trip arrivalPos="55.64" depart="61456" departPos="8.14" from="nt9_nt5" id="random50_61200" to="nt4_np4" type="griddistrandom"/>
    <trip arrivalPos="13.66" depart="61465" departPos="24.53" from="nt5_nt9" id="random51_61200" to="nt11_nt7" type="griddistrandom"/>
    <trip arrivalPos="148.77" depart="61475" departPos="123.62" from="nt16_nt12" id="random52_61200" to="nt11_nt7" type="griddistrandom"/>
    <trip arrivalPos="68.52" depart="61476" departPos="105.73" from="nt9_nt5" id="random53_61200" to="nt12_nt16" type="griddistrandom"/>
    <trip arrivalPos="37.83" depart="61482" departPos="40.43" from="nt7_nt6" id="random54_61200" to="nt16_nt12" type="griddistrandom"/>
    <trip arrivalPos="57.49" depart="61490" departPos="133.29" from="nt9_nt10" id="random55_61200" to="nt11_nt7" type="griddistrandom"/>
    <trip arrivalPos="120.58" depart="61493" departPos="143.30" from="nt7_nt6" id="random56_61200" to="nt5_nt9" type="griddistrandom"/>
    <trip arrivalPos="69.79" depart="61494" departPos="182.14" from="nt11_nt10" id="random57_61200" to="nt16_nt12" type="griddistrandom"/>
    <trip arrivalPos="51.21" depart="61505" departPos="49.38" from="nt6_nt10" id="random58_61200" to="nt1_np1" type="griddistrandom"/>
    <trip arrivalPos="43.64" depart="61517" departPos="35.84" from="nt12_nt16" id="random59_61200" to="nt16_np8" type="griddistrandom"/>
    <trip arrivalPos="163.82" depart="61517" departPos="75.23" from="nt14_nt13" id="random60_61200" to="nt15_nt14" type="griddistrandom"/>
    <trip arrivalPos="25.16" depart="61519" departPos="76.43" from="nt15_nt11" id="random61_61200" to="nt14_nt13" type="griddistrandom"/>
    <trip arrivalPos="118.13" depart="61522" departPos="53.79" from="nt4_nt3" id="random62_61200" to="nt10_nt6" type="griddistrandom"/>
    <trip arrivalPos="3.98" depart="61529" departPos="11.68" from="nt13_nt14" id="random63_61200" to="nt8_nt4" type="griddistrandom"/>
    <trip arrivalPos="84.52" depart="61532" departPos="139.06" from="nt9_nt13" id="random64_61200" to="nt9_nt13" type="griddistrandom"/>
    <trip arrivalPos="6.99" depart="61532" departPos="158.75" from="nt14_nt13" id="random65_61200" to="nt8_np6" type="griddistrandom"/>
    <trip arrivalPos="81.95" depart="61534" departPos="23.66" from="nt10_nt6" id="random66_61200" to="nt4_nt3" type="griddistrandom"/>
    <trip arrivalPos="148.18" depart="61534" departPos="36.80" from="np13_nt13" id="random67_61200" to="nt5_nt1" type="griddistrandom"/>
    <trip arrivalPos="141.80" depart="61536" departPos="15.88" from="nt6_nt5" id="random68_61200" to="nt6_nt2" type="griddistrandom"/>
    <trip arrivalPos="46.66" depart="61539" departPos="143.53" from="nt8_nt4" id="random69_61200" to="nt11_nt7" type="griddistrandom"/>
    <trip arrivalPos="1.69" depart="61540" departPos="149.80" from="nt2_nt3" id="random70_61200" to="nt1_nt5" type="griddistrandom"/>
    <trip arrivalPos="29.85" depart="61550" departPos="151.76" from="nt10_nt9" id="random71_61200" to="nt9_np14" type="griddistrandom"/>
    <trip arrivalPos="44.91" depart="61555" departPos="172.24" from="nt12_nt8" id="random72_61200" to="nt5_nt1" type="griddistrandom"/>
    <trip arrivalPos="131.58" depart="61563" departPos="8.53" from="np15_nt5" id="random73_61200" to="nt2_nt6" type="griddistrandom"/>
    <trip arrivalPos="120.61" depart="61564" departPos="8.12" from="np3_nt3" id="random74_61200" to="nt4_nt8" type="griddistrandom"/>
    <trip arrivalPos="130.19" depart="61565" departPos="8.32" from="nt9_nt10" id="random75_61200" to="nt11_nt15" type="griddistrandom"/>
    <trip arrivalPos="54.37" depart="61568" departPos="109.02" from="nt6_nt2" id="random76_61200" to="nt4_np5" type="griddistrandom"/>
    <trip arrivalPos="154.87" depart="61568" departPos="135.99" from="nt1_nt5" id="random77_61200" to="nt4_nt3" type="griddistrandom"/>
    <trip arrivalPos="167.89" depart="61588" departPos="128.91" from="nt3_nt4" id="random78_61200" to="nt10_nt14" type="griddistrandom"/>
    <trip arrivalPos="34.50" depart="61597" departPos="119.43" from="nt11_nt10" id="random79_61200" to="nt3_np3" type="griddistrandom"/>
    <trip arrivalPos="58.70" depart="61602" departPos="87.83" from="nt10_nt11" id="random80_61200" to="nt15_nt14" type="griddistrandom"/>
    <trip arrivalPos="57.55" depart="61604" departPos="99.37" from="nt13_nt14" id="random81_61200" to="nt7_nt3" type="griddistrandom"/>
    <trip arrivalPos="20.61" depart="61613" departPos="19.09" from="nt3_nt4" id="random82_61200" to="nt9_nt5" type="griddistrandom"/>
    <trip arrivalPos="30.28" depart="61615" departPos="168.67" from="nt9_nt13" id="random83_61200" to="nt14_nt15" type="griddistrandom"/>
    <trip arrivalPos="140.50" depart="61615" departPos="63.91" from="nt5_nt9" id="random84_61200" to="nt12_nt11" type="griddistrandom"/>
    <trip arrivalPos="51.66" depart="61617" departPos="10.44" from="np8_nt16" id="random85_61200" to="nt1_np16" type="griddistrandom"/>
    <trip arrivalPos="53.15" depart="61620" departPos="144.14" from="nt11_nt15" id="random86_61200" to="nt13_np12" type="griddistrandom"/>
    <trip arrivalPos="106.82" depart="61635" departPos="19.40" from="nt16_nt15" id="random87_61200" to="nt6_nt2" type="griddistrandom"/>
    <trip arrivalPos="70.56" depart="61636" departPos="171.54" from="nt11_nt10" id="random88_61200" to="nt4_np5" type="griddistrandom"/>
    <trip arrivalPos="157.76" depart="61639" departPos="83.38" from="nt6_nt2" id="random89_61200" to="nt8_nt4" type="griddistrandom"/>
    <trip arrivalPos="153.97" depart="61641" departPos="152.36" from="nt15_nt11" id="random90_61200" to="nt8_nt7" type="griddistrandom"/>
    <trip arrivalPos="92.44" depart="61646" departPos="14.13" from="nt1_nt5" id="random91_61200" to="nt10_nt6" type="griddistrandom"/>
    <trip arrivalPos="13.24" depart="61647" departPos="48.35" from="nt5_nt1" id="random92_61200" to="nt2_np2" type="griddistrandom"/>
    <trip arrivalPos="108.82" depart="61648" departPos="29.72" from="np10_nt15" id="random93_61200" to="nt3_nt2" type="griddistrandom"/>
    <trip arrivalPos="9.47" depart="61649" departPos="11.50" from="np15_nt5" id="random94_61200" to="nt1_np16" type="griddistrandom"/>
    <trip arrivalPos="48.32" depart="61650" departPos="4.68" from="nt10_nt9" id="random95_61200" to="nt11_nt12" type="griddistrandom"/>
    <trip arrivalPos="49.49" depart="61653" departPos="53.50" from="nt2_nt3" id="random96_61200" to="nt6_nt2" type="griddistrandom"/>
    <trip arrivalPos="107.43" depart="61655" departPos="95.74" from="nt13_nt14" id="random97_61200" to="nt3_nt7" type="griddistrandom"/>
    <trip arrivalPos="15.72" depart="61656" departPos="41.03" from="np13_nt13" id="random98_61200" to="nt4_np5" type="griddistrandom"/>
    <trip arrivalPos="4.87" depart="61657" departPos="93.72" from="nt3_nt2" id="random99_61200" to="nt7_nt6" type="griddistrandom"/>
    <trip arrivalPos="58.89" depart="61658" departPos="23.75" from="np5_nt4" id="random100_61200" to="nt11_nt12" type="griddistrandom"/>
    <trip arrivalPos="4.91" depart="61661" departPos="70.70" from="nt2_nt1" id="random101_61200" to="nt3_nt2" type="griddistrandom"/>
    <trip arrivalPos="106.85" depart="61665" departPos="55.24" from="np7_nt12" id="random102_61200" to="nt6_nt2" type="griddistrandom"/>
    <trip arrivalPos="39.17" depart="61672" departPos="25.02" from="nt12_nt11" id="random103_61200" to="nt15_nt14" type="griddistrandom"/>
    <trip arrivalPos="24.89" depart="61672" departPos="51.90" from="np1_nt1" id="random104_61200" to="nt5_np15" type="griddistrandom"/>
    <trip arrivalPos="59.40" depart="61673" departPos="141.12" from="nt11_nt15" id="random105_61200" to="nt16_np8" type="griddistrandom"/>
    <trip arrivalPos="18.03" depart="61673" departPos="41.35" from="np15_nt5" id="random106_61200" to="nt16_nt15" type="griddistrandom"/>
    <trip arrivalPos="88.48" depart="61679" departPos="46.84" from="nt11_nt12" id="random107_61200" to="nt11_nt7" type="griddistrandom"/>
    <trip arrivalPos="112.52" depart="61686" departPos="19.16" from="np9_nt16" id="random108_61200" to="nt7_nt6" type="griddistrandom"/>
    <trip arrivalPos="16.30" depart="61698" departPos="58.40" from="np16_nt1" id="random109_61200" to="nt11_nt15" type="griddistrandom"/>
    <trip arrivalPos="25.90" depart="61713" departPos="95.99" from="nt16_nt12" id="random110_61200" to="nt16_nt15" type="griddistrandom"/>
    <trip arrivalPos="81.00" depart="61715" departPos="88.15" from="nt10_nt9" id="random111_61200" to="nt9_nt13" type="griddistrandom"/>
    <trip arrivalPos="117.43" depart="61717" departPos="70.54" from="nt13_nt9" id="random112_61200" to="nt10_nt14" type="griddistrandom"/>
    <trip arrivalPos="21.55" depart="61718" departPos="173.42" from="nt6_nt10" id="random113_61200" to="nt7_nt3" type="griddistrandom"/>
    <trip arrivalPos="166.01" depart="61727" departPos="11.33" from="np5_nt4" id="random114_61200" to="nt11_nt15" type="griddistrandom"/>
    <trip arrivalPos="94.04" depart="61730" departPos="37.23" from="np11_nt14" id="random115_61200" to="nt5_nt9" type="griddistrandom"/>
    <trip arrivalPos="14.69" depart="61736" departPos="34.16" from="np11_nt14" id="random116_61200" to="nt3_np3" type="griddistrandom"/>
    <trip arrivalPos="39.81" depart="61736" departPos="0.66" from="np11_nt14" id="random117_61200" to="nt15_np10" type="griddistrandom"/>
    <trip arrivalPos="43.72" depart="61740" departPos="121.95" from="nt5_nt6" id="random118_61200" to="nt3_nt7" type="griddistrandom"/>
    <trip arrivalPos="15.84" depart="61741" departPos="102.24" from="nt12_nt8" id="random119_61200" to="nt4_np5" type="griddistrandom"/>
    <trip arrivalPos="124.61" depart="61744" departPos="49.51" from="np8_nt16" id="random120_61200" to="nt10_nt11" type="griddistrandom"/>
    <trip arrivalPos="1.87" depart="61751" departPos="34.16" from="nt6_nt7" id="random121_61200" to="nt8_nt12" type="griddistrandom"/>
    <trip arrivalPos="167.97" depart="61753" departPos="142.86" from="nt10_nt9" id="random122_61200" to="nt8_nt7" type="griddistrandom"/>
    <trip arrivalPos="60.01" depart="61764" departPos="7.08" from="nt6_nt5" id="random123_61200" to="nt16_np9" type="griddistrandom"/>
    <trip arrivalPos="40.25" depart="61771" departPos="172.27" from="nt5_nt6" id="random124_61200" to="nt16_np8" type="griddistrandom"/>
    <trip arrivalPos="149.13" depart="61775" departPos="32.54" from="nt11_nt15" id="random125_61200" to="nt13_nt9" type="griddistrandom"/>
    <trip arrivalPos="31.71" depart="61775" departPos="167.83" from="nt8_nt4" id="random126_61200" to="nt13_nt9" type="griddistrandom"/>
    <trip arrivalPos="101.61" depart="61782" departPos="35.58" from="nt9_nt13" id="random127_61200" to="nt4_nt3" type="griddistrandom"/>
    <trip arrivalPos="140.17" depart="61796" departPos="22.19" from="np2_nt2" id="random128_61200" to="nt13_nt14" type="griddistrandom"/>
    <trip arrivalPos="121.45" depart="61797" departPos="16.02" from="nt7_nt8" id="random129_61200" to="nt3_nt4" type="griddistrandom"/>
    <trip arrivalPos="59.60" depart="61801" departPos="0.41" from="nt7_nt3" id="random130_61200" to="nt2_nt3" type="griddistrandom"/>
    <trip arrivalPos="33.93" depart="61804" departPos="33.14" from="np12_nt13" id="random131_61200" to="nt3_np3" type="griddistrandom"/>
    <trip arrivalPos="40.25" depart="61810" departPos="64.82" from="nt6_nt5" id="random132_61200" to="nt4_np4" type="griddistrandom"/>
    <trip arrivalPos="33.68" depart="61814" departPos="172.77" from="nt4_nt8" id="random133_61200" to="nt15_np10" type="griddistrandom"/>
    <trip arrivalPos="41.75" depart="61815" departPos="118.55" from="nt12_nt8" id="random134_61200" to="nt3_np3" type="griddistrandom"/>
    <trip arrivalPos="60.42" depart="61823" departPos="9.34" from="nt9_nt10" id="random135_61200" to="nt9_np14" type="griddistrandom"/>
    <trip arrivalPos="49.19" depart="61827" departPos="34.63" from="np13_nt13" id="random136_61200" to="nt13_nt9" type="griddistrandom"/>
    <trip arrivalPos="57.71" depart="61855" departPos="62.31" from="np13_nt13" id="random137_61200" to="nt4_nt8" type="griddistrandom"/>
    <trip arrivalPos="106.71" depart="61855" departPos="110.01" from="nt10_nt6" id="random138_61200" to="nt10_nt6" type="griddistrandom"/>
    <trip arrivalPos="5.05" depart="61865" departPos="55.19" from="nt12_nt16" id="random139_61200" to="nt5_nt1" type="griddistrandom"/>
    <trip arrivalPos="37.88" depart="61868" departPos="101.31" from="nt14_nt13" id="random140_61200" to="nt9_np14" type="griddistrandom"/>
    <trip arrivalPos="63.64" depart="61876" departPos="45.67" from="nt15_nt14" id="random141_61200" to="nt9_np14" type="griddistrandom"/>
    <trip arrivalPos="143.04" depart="61877" departPos="5.11" from="nt2_nt1" id="random142_61200" to="nt14_nt10" type="griddistrandom"/>
    <trip arrivalPos="62.71" depart="61880" departPos="136.37" from="nt5_nt1" id="random143_61200" to="nt16_nt12" type="griddistrandom"/>
    <trip arrivalPos="163.97" depart="61887" departPos="123.34" from="nt3_nt4" id="random144_61200" to="nt14_nt15" type="griddistrandom"/>
    <trip arrivalPos="35.36" depart="61888" departPos="38.74" from="np15_nt5" id="random145_61200" to="nt9_nt5" type="griddistrandom"/>
    <trip arrivalPos="100.11" depart="61892" departPos="24.68" from="np1_nt1" id="random146_61200" to="nt11_nt15" type="griddistrandom"/>
    <trip arrivalPos="95.65" depart="61899" departPos="182.17" from="nt7_nt8" id="random147_61200" to="nt4_nt3" type="griddistrandom"/>
    <trip arrivalPos="3.31" depart="61902" departPos="159.31" from="nt7_nt6" id="random148_61200" to="nt4_np4" type="griddistrandom"/>
    <trip arrivalPos="48.26" depart="61907" departPos="174.12" from="nt6_nt2" id="random149_61200" to="nt4_nt8" type="griddistrandom"/>
    <trip arrivalPos="14.44" depart="61913" departPos="26.90" from="nt1_nt2" id="random150_61200" to="nt8_np6" type="griddistrandom"/>
    <trip arrivalPos="112.09" depart="61915" departPos="9.79" from="np14_nt9" id="random151_61200" to="nt9_nt13" type="griddistrandom"/>
    <trip arrivalPos="51.76" depart="61920" departPos="43.37" from="nt10_nt6" id="random152_61200" to="nt15_np10" type="griddistrandom"/>
    <trip arrivalPos="88.16" depart="61937" departPos="75.80" from="nt4_nt8" id="random153_61200" to="nt11_nt15" type="griddistrandom"/>
    <trip arrivalPos="130.32" depart="61942" departPos="29.60" from="np13_nt13" id="random154_61200" to="nt5_nt9" type="griddistrandom"/>
    <trip arrivalPos="97.24" depart="61945" departPos="112.72" from="nt14_nt15" id="random155_61200" to="nt8_nt12" type="griddistrandom"/>
    <trip arrivalPos="141.73" depart="61956" departPos="81.42" from="nt7_nt3" id="random156_61200" to="nt5_nt6" type="griddistrandom"/>
    <trip arrivalPos="66.63" depart="61960" departPos="128.42" from="nt11_nt12" id="random157_61200" to="nt1_nt5" type="griddistrandom"/>
    <trip arrivalPos="79.98" depart="61968" departPos="114.08" from="nt6_nt10" id="random158_61200" to="nt12_nt16" type="griddistrandom"/>
    <trip arrivalPos="130.63" depart="61971" departPos="72.32" from="nt3_nt2" id="random159_61200" to="nt10_nt6" type="griddistrandom"/>
    <trip arrivalPos="2.22" depart="61978" departPos="50.38" from="np12_nt13" id="random160_61200" to="nt9_np14" type="griddistrandom"/>
    <trip arrivalPos="67.87" depart="61978" departPos="177.71" from="nt9_nt5" id="random161_61200" to="nt7_nt8" type="griddistrandom"/>
    <trip arrivalPos="87.30" depart="61981" departPos="146.90" from="nt8_nt4" id="random162_61200" to="nt11_nt15" type="griddistrandom"/>
    <trip arrivalPos="6.40" depart="61988" departPos="7.84" from="np2_nt2" id="random163_61200" to="nt11_nt12" type="griddistrandom"/>
    <trip arrivalPos="81.29" depart="61994" departPos="127.64" from="nt9_nt5" id="random164_61200" to="nt9_nt10" type="griddistrandom"/>
    <trip arrivalPos="42.05" depart="61995" departPos="181.59" from="nt2_nt3" id="random165_61200" to="nt6_nt5" type="griddistrandom"/>
    <trip arrivalPos="134.72" depart="61996" departPos="41.40" from="nt5_nt1" id="random166_61200" to="nt3_nt2" type="griddistrandom"/>
    <trip arrivalPos="25.64" depart="61999" departPos="6.23" from="nt11_nt12" id="random167_61200" to="nt14_np11" type="griddistrandom"/>
    <trip arrivalPos="10.61" depart="62010" departPos="118.16" from="nt6_nt2" id="random168_61200" to="nt11_nt12" type="griddistrandom"/>
    <trip arrivalPos="0.82" depart="62013" departPos="47.43" from="nt10_nt6" id="random169_61200" to="nt16_nt15" type="griddistrandom"/>
    <trip arrivalPos="143.65" depart="62021" departPos="142.52" from="nt1_nt2" id="random170_61200" to="nt11_nt7" type="griddistrandom"/>
    <trip arrivalPos="123.51" depart="62021" departPos="150.27" from="nt7_nt11" id="random171_61200" to="nt2_nt1" type="griddistrandom"/>
    <trip arrivalPos="158.02" depart="62025" departPos="134.44" from="nt11_nt12" id="random172_61200" to="nt7_nt3" type="griddistrandom"/>
    <trip arrivalPos="97.93" depart="62044" departPos="79.01" from="nt4_nt8" id="random173_61200" to="nt15_nt16" type="griddistrandom"/>
    <trip arrivalPos="58.47" depart="62051" departPos="184.06" from="nt5_nt6" id="random174_61200" to="nt7_nt8" type="griddistrandom"/>
    <trip arrivalPos="6.65" depart="62054" departPos="122.94" from="nt12_nt11" id="random175_61200" to="nt12_nt11" type="griddistrandom"/>
    <trip arrivalPos="149.38" depart="62063" departPos="156.98" from="nt11_nt10" id="random176_61200" to="nt7_nt3" type="griddistrandom"/>
    <trip arrivalPos="30.86" depart="62063" departPos="127.32" from="nt2_nt6" id="random177_61200" to="nt2_np2" type="griddistrandom"/>
    <trip arrivalPos="106.38" depart="62067" departPos="179.53" from="nt5_nt6" id="random178_61200" to="nt8_nt4" type="griddistrandom"/>
    <trip arrivalPos="132.63" depart="62068" departPos="6.80" from="np6_nt8" id="random179_61200" to="nt14_nt15" type="griddistrandom"/>
    <trip arrivalPos="148.61" depart="62079" departPos="64.60" from="nt10_nt9" id="random180_61200" to="nt16_nt12" type="griddistrandom"/>
    <trip arrivalPos="59.03" depart="62083" departPos="72.16" from="np10_nt15" id="random181_61200" to="nt16_nt15" type="griddistrandom"/>
    <trip arrivalPos="16.09" depart="62086" departPos="34.99" from="np10_nt15" id="random182_61200" to="nt2_nt6" type="griddistrandom"/>
    <trip arrivalPos="86.06" depart="62089" departPos="62.88" from="np2_nt2" id="random183_61200" to="nt6_nt2" type="griddistrandom"/>
    <trip arrivalPos="160.86" depart="62090" departPos="123.27" from="nt5_nt1" id="random184_61200" to="nt13_nt14" type="griddistrandom"/>
    <trip arrivalPos="36.21" depart="62093" departPos="65.76" from="nt9_nt5" id="random185_61200" to="nt4_np5" type="griddistrandom"/>
    <trip arrivalPos="28.49" depart="62098" departPos="47.01" from="np2_nt2" id="random186_61200" to="nt6_nt5" type="griddistrandom"/>
    <trip arrivalPos="59.35" depart="62103" departPos="35.85" from="nt5_nt9" id="random187_61200" to="nt9_nt10" type="griddistrandom"/>
    <trip arrivalPos="159.77" depart="62104" departPos="161.61" from="nt12_nt16" id="random188_61200" to="nt8_nt7" type="griddistrandom"/>
    <trip arrivalPos="88.76" depart="62109" departPos="81.47" from="nt11_nt7" id="random189_61200" to="nt14_nt13" type="griddistrandom"/>
    <trip arrivalPos="43.79" depart="62121" departPos="94.78" from="nt3_nt4" id="random190_61200" to="nt5_nt1" type="griddistrandom"/>
    <trip arrivalPos="9.85" depart="62124" departPos="119.46" from="nt2_nt6" id="random191_61200" to="nt1_np16" type="griddistrandom"/>
    <trip arrivalPos="54.17" depart="62133" departPos="150.87" from="nt4_nt3" id="random192_61200" to="nt6_nt5" type="griddistrandom"/>
    <trip arrivalPos="119.10" depart="62134" departPos="91.64" from="nt9_nt13" id="random193_61200" to="nt3_nt4" type="griddistrandom"/>
    <trip arrivalPos="71.51" depart="62136" departPos="114.73" from="nt16_nt12" id="random194_61200" to="nt9_nt5" type="griddistrandom"/>
    <trip arrivalPos="19.54" depart="62144" departPos="94.73" from="nt7_nt8" id="random195_61200" to="nt10_nt9" type="griddistrandom"/>
    <trip arrivalPos="157.52" depart="62166" departPos="47.94" from="np9_nt16" id="random196_61200" to="nt12_nt16" type="griddistrandom"/>
    <trip arrivalPos="4.74" depart="62168" departPos="100.26" from="nt12_nt8" id="random197_61200" to="nt16_np9" type="griddistrandom"/>
    <trip arrivalPos="76.39" depart="62168" departPos="16.65" from="np2_nt2" id="random198_61200" to="nt1_nt5" type="griddistrandom"/>
    <trip arrivalPos="58.26" depart="62170" departPos="165.57" from="nt9_nt10" id="random199_61200" to="nt15_nt16" type="griddistrandom"/>
    <trip arrivalPos="51.56" depart="62175" departPos="60.66" from="np9_nt16" id="random200_61200" to="nt9_np14" type="griddistrandom"/>
    <trip arrivalPos="69.75" depart="62188" departPos="27.84" from="np2_nt2" id="random201_61200" to="nt14_nt13" type="griddistrandom"/>
    <trip arrivalPos="44.63" depart="62195" departPos="119.33" from="nt5_nt9" id="random202_61200" to="nt16_np8" type="griddistrandom"/>
    <trip arrivalPos="48.64" depart="62197" departPos="175.36" from="nt3_nt2" id="random203_61200" to="nt16_np8" type="griddistrandom"/>
    <trip arrivalPos="40.35" depart="62198" departPos="84.37" from="nt7_nt8" id="random204_61200" to="nt12_nt11" type="griddistrandom"/>
    <trip arrivalPos="138.31" depart="62206" departPos="35.18" from="np4_nt4" id="random205_61200" to="nt6_nt5" type="griddistrandom"/>
    <trip arrivalPos="64.13" depart="62224" departPos="29.70" from="nt4_nt8" id="random206_61200" to="nt4_nt3" type="griddistrandom"/>
    <trip arrivalPos="50.64" depart="62228" departPos="25.83" from="nt8_nt12" id="random207_61200" to="nt10_nt9" type="griddistrandom"/>
    <trip arrivalPos="96.55" depart="62232" departPos="105.50" from="nt10_nt9" id="random208_61200" to="nt16_nt12" type="griddistrandom"/>
    <trip arrivalPos="112.72" depart="62234" departPos="169.29" from="nt3_nt7" id="random209_61200" to="nt7_nt3" type="griddistrandom"/>
    <trip arrivalPos="101.38" depart="62240" departPos="35.06" from="nt11_nt12" id="random210_61200" to="nt9_nt10" type="griddistrandom"/>
    <trip arrivalPos="87.95" depart="62246" departPos="85.58" from="nt5_nt9" id="random211_61200" to="nt16_nt15" type="griddistrandom"/>
    <trip arrivalPos="5.93" depart="62246" departPos="122.58" from="nt2_nt1" id="random212_61200" to="nt15_nt16" type="griddistrandom"/>
    <trip arrivalPos="17.52" depart="62248" departPos="62.52" from="np4_nt4" id="random213_61200" to="nt3_np3" type="griddistrandom"/>
    <trip arrivalPos="176.63" depart="62252" departPos="63.13" from="nt3_nt4" id="random214_61200" to="nt13_nt14" type="griddistrandom"/>
    <trip arrivalPos="59.05" depart="62254" departPos="45.81" from="nt11_nt12" id="random215_61200" to="nt14_np11" type="griddistrandom"/>
    <trip arrivalPos="25.45" depart="62257" departPos="38.40" from="nt10_nt14" id="random216_61200" to="nt10_nt11" type="griddistrandom"/>
    <trip arrivalPos="57.28" depart="62258" departPos="76.99" from="nt10_nt14" id="random217_61200" to="nt6_nt7" type="griddistrandom"/>
    <trip arrivalPos="21.19" depart="62259" departPos="154.12" from="nt10_nt11" id="random218_61200" to="nt3_nt2" type="griddistrandom"/>