<routes>
    <trip arrivalPos="87.22" depart="50405" departPos="97.84" from="nt13_nt9" id="random0_50400" to="nt13_nt9" type="griddistrandom"/>
    <trip arrivalPos="60.42" depart="50427" departPos="34.46" from="nt8_nt4" id="random1_50400" to="nt4_np4" type="griddistrandom"/>
    <trip arrivalPos="29.20" depart="50428" departPos="55.75" from="np4_nt4" id="random2_50400" to="nt8_np6" type="griddistrandom"/>
    <trip arrivalPos="158.62" depart="50436" departPos="3.82" from="np9_nt16" id="random3_50400" to="nt9_nt5" type="griddistrandom"/>
    <trip arrivalPos="111.33" depart="50437" departPos="124.71" from="nt6_nt10" id="random4_50400" to="nt9_nt10" type="griddistrandom"/>
    <trip arrivalPos="58.56" depart="50442" departPos="6.93" from="np2_nt2" id="random5_50400" to="nt8_np6" type="griddistrandom"/>
    <trip arrivalPos="92.73" depart="50446" departPos="22.18" from="np3_nt3" id="random6_50400" to="nt6_nt2" type="griddistrandom"/>
    <trip arrivalPos="46.04" depart="50448" departPos="61.94" from="nt11_nt15" id="random7_50400" to="nt13_np12" type="griddistrandom"/>
    <trip arrivalPos="146.09" depart="50450" departPos="172.39" from="nt4_nt3" id="random8_50400" to="nt2_nt1" type="griddistrandom"/>
    <trip arrivalPos="45.29" depart="50456" departPos="40.79" from="nt5_nt9" id="random9_50400" to="nt8_nt12" type="griddistrandom"/>
    <trip arrivalPos="73.54" depart="50475" departPos="40.94" from="np11_nt14" id="random10_50400" to="nt12_nt16" type="griddistrandom"/>
    <trip arrivalPos="116.08" depart="50483" departPos="176.74" from="nt10_nt6" id="random11_50400" to="nt10_nt9" type="griddistrandom"/>
    <trip arrivalPos="145.58" depart="50487" departPos="52.21" from="nt9_nt5" id="random12_50400" to="nt3_nt7" type="griddistrandom"/>
    <trip arrivalPos="60.08" depart="50489" departPos="46.72" from="np5_nt4" id="random13_50400" to="nt7_nt8" type="griddistrandom"/>
    <trip arrivalPos="66.41" depart="50496" departPos="139.25" from="nt5_nt1" id="random14_50400" to="nt16_nt15" type="griddistrandom"/>
    <trip arrivalPos="129.04" depart="50496" departPos="85.19" from="nt14_nt10" id="random15_50400" to="nt9_nt13" type="griddistrandom"/>
    <trip arrivalPos="57.90" depart="50505" departPos="2.27" from="np14_nt9" id="random16_50400" to="nt1_nt2" type="griddistrandom"/>
    <trip arrivalPos="116.16" depart="50507" departPos="97.50" from="nt5_nt1" id="random17_50400" to="nt10_nt9" type="griddistrandom"/>
    <trip arrivalPos="47.36" depart="50510" departPos="20.55" from="nt7_nt6" id="random18_50400" to="nt16_np8" type="griddistrandom"/>
    <trip arrivalPos="16.75" depart="50527" departPos="124.92" from="nt6_nt10" id="random19_50400" to="nt16_nt12" type="griddistrandom"/>
    <trip arrivalPos="56.46" depart="50528" departPos="6.03" from="np1_nt1" id="random20_50400" to="nt16_np8" type="griddistrandom"/>
    <trip arrivalPos="86.30" depart="50531" departPos="126.33" from="nt13_nt9" id="random21_50400" to="nt1_nt2" type="griddistrandom"/>
    <trip arrivalPos="109.54" depart="50535" departPos="78.34" from="nt6_nt2" id="random22_50400" to="nt10_nt9" type="griddistrandom"/>
    <trip arrivalPos="126.58" depart="50536" departPos="26.49" from="nt1_nt2" id="random23_50400" to="nt11_nt7" type="griddistrandom"/>
    <trip arrivalPos="160.25" depart="50541" departPos="160.67" from="nt8_nt7" id="random24_50400" to="nt13_nt14" type="griddistrandom"/>
    <trip arrivalPos="18.75" depart="50550" departPos="115.26" from="nt14_nt13" id="random25_50400" to="nt12_np7" type="griddistrandom"/>
    <trip arrivalPos="82.84" depart="50550" departPos="117.51" from="nt8_nt4" id="random26_50400" to="nt2_nt6" type="griddistrandom"/>
    <trip arrivalPos="151.78" depart="50557" departPos="40.35" from="np5_nt4" id="random27_50400" to="nt14_nt13" type="griddistrandom"/>
    <trip arrivalPos="48.80" depart="50559" departPos="3.70" from="np16_nt1" id="random28_50400" to="nt4_nt3" type="griddistrandom"/>
    <trip arrivalPos="44.31" depart="50564" departPos="103.06" from="nt11_nt10" id="random29_50400" to="nt10_nt6" type="griddistrandom"/>
    <trip arrivalPos="136.14" depart="50566" departPos="17.95" from="np15_nt5" id="random30_50400" to="nt2_nt1" type="griddistrandom"/>
    <trip arrivalPos="60.61" depart="50568" departPos="92.94" from="nt4_nt8" id="random31_50400" to="nt10_nt6" type="griddistrandom"/>
    <trip arrivalPos="129.44" depart="50568" departPos="136.82" from="nt14_nt15" id="random32_50400" to="nt9_nt13" type="griddistrandom"/>
    <trip arrivalPos="32.88" depart="50582" departPos="21.93" from="np8_nt16" id="random33_50400" to="nt8_nt4" type="griddistrandom"/>
    <trip arrivalPos="59.27" depart="50587" departPos="109.68" from="nt6_nt2" id="random34_50400" to="nt5_nt1" type="griddistrandom"/>
    <trip arrivalPos="46.79" depart="50594" departPos="113.94" from="nt7_nt6" id="random35_50400" to="nt3_np3" type="griddistrandom"/>
    <trip arrivalPos="54.13" depart="50599" departPos="37.48" from="nt6_nt5" id="random36_50400" to="nt12_nt11" type="griddistrandom"/>
    <trip arrivalPos="13.60" depart="50603" departPos="131.46" from="nt6_nt7" id="random37_50400" to="nt6_nt5" type="griddistrandom"/>
    <trip arrivalPos="36.48" depart="50619" departPos="142.43" from="nt5_nt6" id="random38_50400" to="nt7_nt11" type="griddistrandom"/>
    <trip arrivalPos="53.45" depart="50619" departPos="106.97" from="nt7_nt3" id="random39_50400" to="nt1_np1" type="griddistrandom"/>
    <trip arrivalPos="81.00" depart="50621" departPos="141.01" from="nt2_nt1" id="random40_50400" to="nt7_nt6" type="griddistrandom"/>
    <trip arrivalPos="42.60" depart="50625" departPos="6.16" from="nt6_nt5" id="random41_50400" to="nt13_np13" type="griddistrandom"/>
    <trip arrivalPos="65.96" depart="50627" departPos="18.30" from="np3_nt3" id="random42_50400" to="nt12_np7" type="griddistrandom"/>
    <trip arrivalPos="116.03" depart="50631" departPos="124.41" from="nt11_nt15" id="random43_50400" to="nt1_nt5" type="griddistrandom"/>
    <trip arrivalPos="34.20" depart="50635" departPos="89.53" from="nt11_nt10" id="random44_50400" to="nt1_np1" type="griddistrandom"/>
    <trip arrivalPos="95.21" depart="50639" departPos="16.21" from="nt7_nt8" id="random45_50400" to="nt9_nt10" type="griddistrandom"/>
    <trip arrivalPos="51.07" depart="50647" departPos="62.91" from="np6_nt8" id="random46_50400" to="nt13_np13" type="griddistrandom"/>
    <trip arrivalPos="48.14" depart="50649" departPos="159.85" from="nt9_nt5" id="random47_50400" to="nt12_np7" type="griddistrandom"/>
    <trip arrivalPos="13.92" depart="50653" departPos="137.11" from="nt12_nt16" id="random48_50400" to="nt13_np12" type="griddistrandom"/>
    <trip arrivalPos="91.16" depart="50654" departPos="4.85" from="np3_nt3" id="random49_50400" to="nt10_nt14" type="griddistrandom"/>
    <trip arrivalPos="55.64" depart="50656" departPos="8.14" from="nt9_nt5" id="random50_50400" to="nt4_np4" type="griddistrandom"/>
    <trip arrivalPos="13.66" depart="50665" departPos="24.53" from="nt5_nt9" id="random51_50400" to="nt11_nt7" type="griddistrandom"/>
    <trip arrivalPos="148.77" depart="50675" departPos="123.62" from="nt16_nt12" id="random52_50400" to="nt11_nt7" type="griddistrandom"/>
    <trip arrivalPos="68.52" depart="50676" departPos="105.73" from="nt9_nt5" id="random53_50400" to="nt12_nt16" type="griddistrandom"/>
    <trip arrivalPos="37.83" depart="50682" departPos="40.43" from="nt7_nt6" id="random54_50400" to="nt16_nt12" type="griddistrandom"/>
    <trip arrivalPos="57.49" depart="50690" departPos="133.29" from="nt9_nt10" id="random55_50400" to="nt11_nt7" type="griddistrandom"/>
    <trip arrivalPos="120.58" depart="50693" departPos="143.30" from="nt7_nt6" id="random56_50400" to="nt5_nt9" type="griddistrandom"/>
    <trip arrivalPos="69.79" depart="50694" departPos="182.14" from="nt11_nt10" id="random57_50400" to="nt16_nt12" type="griddistrandom"/>
    <trip arrivalPos="51.21" depart="50705" departPos="49.38" from="nt6_nt10" id="random58_50400" to="nt1_np1" type="griddistrandom"/>
    <trip arrivalPos="43.64" depart="50717" departPos="35.84" from="nt12_nt16" id="random59_50400" to="nt16_np8" type="griddistrandom"/>
    <trip arrivalPos="163.82" depart="50717" departPos="75.23" from="nt14_nt13" id="random60_50400" to="nt15_nt14" type="griddistrandom"/>
    <trip arrivalPos="25.16" depart="50719" departPos="76.43" from="nt15_nt11" id="random61_50400" to="nt14_nt13" type="griddistrandom"/>
    <trip arrivalPos="118.13" depart="50722" departPos="53.79" from="nt4_nt3" id="random62_50400" to="nt10_nt6" type="griddistrandom"/>
    <trip arrivalPos="3.98" depart="50729" departPos="11.68" from="nt13_nt14" id="random63_50400" to="nt8_nt4" type="griddistrandom"/>
    <trip arrivalPos="84.52" depart="50732" departPos="139.06" from="nt9_nt13" id="random64_50400" to="nt9_nt13" type="griddistrandom"/>
    <trip arrivalPos="6.99" depart="50732" departPos="158.75" from="nt14_nt13" id="random65_50400" to="nt8_np6" type="griddistrandom"/>
    <trip arrivalPos="81.95" depart="50734" departPos="23.66" from="nt10_nt6" id="random66_50400" to="nt4_nt3" type="griddistrandom"/>
    <trip arrivalPos="148.18" depart="50734" departPos="36.80" from="np13_nt13" id="random67_50400" to="nt5_nt1" type="griddistrandom"/>
    <trip arrivalPos="141.80" depart="50736" departPos="15.88" from="nt6_nt5" id="random68_50400" to="nt6_nt2" type="griddistrandom"/>
    <trip arrivalPos="46.66" depart="50739" departPos="143.53" from="nt8_nt4" id="random69_50400" to="nt11_nt7" type="griddistrandom"/>
    <trip arrivalPos="1.69" depart="50740" departPos="149.80" from="nt2_nt3" id="random70_50400" to="nt1_nt5" type="griddistrandom"/>
    <trip arrivalPos="29.85" depart="50750" departPos="151.76" from="nt10_nt9" id="random71_50400" to="nt9_np14" type="griddistrandom"/>
    <trip arrivalPos="44.91" depart="50755" departPos="172.24" from="nt12_nt8" id="random72_50400" to="nt5_nt1" type="griddistrandom"/>
    <trip arrivalPos="131.58" depart="50763" departPos="8.53" from="np15_nt5" id="random73_50400" to="nt2_nt6" type="griddistrandom"/>
    <trip arrivalPos="120.61" depart="50764" departPos="8.12" from="np3_nt3" id="random74_50400" to="nt4_nt8" type="griddistrandom"/>
    <trip arrivalPos="130.19" depart="50765" departPos="8.32" from="nt9_nt10" id="random75_50400" to="nt11_nt15" type="griddistrandom"/>
    <trip arrivalPos="54.37" depart="50768" departPos="109.02" from="nt6_nt2" id="random76_50400" to="nt4_np5" type="griddistrandom"/>
    <trip arrivalPos="154.87" depart="50768" departPos="135.99" from="nt1_nt5" id="random77_50400" to="nt4_nt3" type="griddistrandom"/>
    <trip arrivalPos="167.89" depart="50788" departPos="128.91" from="nt3_nt4" id="random78_50400" to="nt10_nt14" type="griddistrandom"/>
    <trip arrivalPos="34.50" depart="50797" departPos="119.43" from="nt11_nt10" id="random79_50400" to="nt3_np3" type="griddistrandom"/>
    <trip arrivalPos="58.70" depart="50802" departPos="87.83" from="nt10_nt11" id="random80_50400" to="nt15_nt14" type="griddistrandom"/>
    <trip arrivalPos="57.55" depart="50804" departPos="99.37" from="nt13_nt14" id="random81_50400" to="nt7_nt3" type="griddistrandom"/>
    <trip arrivalPos="20.61" depart="50813" departPos="19.09" from="nt3_nt4" id="random82_50400" to="nt9_nt5" type="griddistrandom"/>
    <trip arrivalPos="30.28" depart="50815" departPos="168.67" from="nt9_nt13" id="random83_50400" to="nt14_nt15" type="griddistrandom"/>
    <trip arrivalPos="140.50" depart="50815" departPos="63.91" from="nt5_nt9" id="random84_50400" to="nt12_nt11" type="griddistrandom"/>
    <trip arrivalPos="51.66" depart="50817" departPos="10.44" from="np8_nt16" id="random85_50400" to="nt1_np16" type="griddistrandom"/>
    <trip arrivalPos="53.15" depart="50820" departPos="144.14" from="nt11_nt15" id="random86_50400" to="nt13_np12" type="griddistrandom"/>
    <trip arrivalPos="106.82" depart="50835" departPos="19.40" from="nt16_nt15" id="random87_50400" to="nt6_nt2" type="griddistrandom"/>
    <trip arrivalPos="70.56" depart="50836" departPos="171.54" from="nt11_nt10" id="random88_50400" to="nt4_np5" type="griddistrandom"/>
    <trip arrivalPos="157.76" depart="50839" departPos="83.38" from="nt6_nt2" id="random89_50400" to="nt8_nt4" type="griddistrandom"/>
    <trip arrivalPos="153.97" depart="50841" departPos="152.36" from="nt15_nt11" id="random90_50400" to="nt8_nt7" type="griddistrandom"/>
    <trip arrivalPos="92.44" depart="50846" departPos="14.13" from="nt1_nt5" id="random91_50400" to="nt10_nt6" type="griddistrandom"/>
    <trip arrivalPos="13.24" depart="50847" departPos="48.35" from="nt5_nt1" id="random92_50400" to="nt2_np2" type="griddistrandom"/>
    <trip arrivalPos="108.82" depart="50848" departPos="29.72" from="np10_nt15" id="random93_50400" to="nt3_nt2" type="griddistrandom"/>
    <trip arrivalPos="9.47" depart="50849" departPos="11.50" from="np15_nt5" id="random94_50400" to="nt1_np16" type="griddistrandom"/>
    <trip arrivalPos="48.32" depart="50850" departPos="4.68" from="nt10_nt9" id="random95_50400" to="nt11_nt12" type="griddistrandom"/>
    <trip arrivalPos="49.49" depart="50853" departPos="53.50" from="nt2_nt3" id="random96_50400" to="nt6_nt2" type="griddistrandom"/>
    <trip arrivalPos="107.43" depart="50855" departPos="95.74" from="nt13_nt14" id="random97_50400" to="nt3_nt7" type="griddistrandom"/>
    <trip arrivalPos="15.72" depart="50856" departPos="41.03" from="np13_nt13" id="random98_50400" to="nt4_np5" type="griddistrandom"/>
    <trip arrivalPos="4.87" depart="50857" departPos="93.72" from="nt3_nt2" id="random99_50400" to="nt7_nt6" type="griddistrandom"/>
    <trip arrivalPos="58.89" depart="50858" departPos="23.75" from="np5_nt4" id="random100_50400" to="nt11_nt12" type="griddistrandom"/>
    <trip arrivalPos="4.91" depart="50861" departPos="70.70" from="nt2_nt1" id="random101_50400" to="nt3_nt2" type="griddistrandom"/>
    <trip arrivalPos="106.85" depart="50865" departPos="55.24" from="np7_nt12" id="random102_50400" to="nt6_nt2" type="griddistrandom"/>
    <trip arrivalPos="39.17" depart="50872" departPos="25.02" from="nt12_nt11" id="random103_50400" to="nt15_nt14" type="griddistrandom"/>
    <trip arrivalPos="24.89" depart="50872" departPos="51.90" from="np1_nt1" id="random104_50400" to="nt5_np15" type="griddistrandom"/>
    <trip arrivalPos="59.40" depart="50873" departPos="141.12" from="nt11_nt15" id="random105_50400" to="nt16_np8" type="griddistrandom"/>
    <trip arrivalPos="18.03" depart="50873" departPos="41.35" from="np15_nt5" id="random106_50400" to="nt16_nt15" type="griddistrandom"/>
    <trip arrivalPos="88.48" depart="50879" departPos="46.84" from="nt11_nt12" id="random107_50400" to="nt11_nt7" type="griddistrandom"/>
    <trip arrivalPos="112.52" depart="50886" departPos="19.16" from="np9_nt16" id="random108_50400" to="nt7_nt6" type="griddistrandom"/>
    <trip arrivalPos="16.30" depart="50898" departPos="58.40" from="np16_nt1" id="random109_50400" to="nt11_nt15" type="griddistrandom"/>
    <trip arrivalPos="25.90" depart="50913" departPos="95.99" from="nt16_nt12" id="random110_50400" to="nt16_nt15" type="griddistrandom"/>
    <trip arrivalPos="81.00" depart="50915" departPos="88.15" from="nt10_nt9" id="random111_50400" to="nt9_nt13" type="griddistrandom"/>
    <trip arrivalPos="117.43" depart="50917" departPos="70.54" from="nt13_nt9" id="random112_50400" to="nt10_nt14" type="griddistrandom"/>
    <trip arrivalPos="21.55" depart="50918" departPos="173.42" from="nt6_nt10" id="random113_50400" to="nt7_nt3" type="griddistrandom"/>
    <trip arrivalPos="166.01" depart="50927" departPos="11.33" from="np5_nt4" id="random114_50400" to="nt11_nt15" type="griddistrandom"/>
    <trip arrivalPos="94.04" depart="50930" departPos="37.23" from="np11_nt14" id="random115_50400" to="nt5_nt9" type="griddistrandom"/>
    <trip arrivalPos="14.69" depart="50936" departPos="34.16" from="np11_nt14" id="random116_50400" to="nt3_np3" type="griddistrandom"/>
    <trip arrivalPos="39.81" depart="50936" departPos="0.66" from="np11_nt14" id="random117_50400" to="nt15_np10" type="griddistrandom"/>
    <trip arrivalPos="43.72" depart="50940" departPos="121.95" from="nt5_nt6" id="random118_50400" to="nt3_nt7" type="griddistrandom"/>
    <trip arrivalPos="15.84" depart="50941" departPos="102.24" from="nt12_nt8" id="random119_50400" to="nt4_np5" type="griddistrandom"/>
    <trip arrivalPos="124.61" depart="50944" departPos="49.51" from="np8_nt16" id="random120_50400" to="nt10_nt11" type="griddistrandom"/>
    <trip arrivalPos="1.87" depart="50951" departPos="34.16" from="nt6_nt7" id="random121_50400" to="nt8_nt12" type="griddistrandom"/>
    <trip arrivalPos="167.97" depart="50953" departPos="142.86" from="nt10_nt9" id="random122_50400" to="nt8_nt7" type="griddistrandom"/>
    <trip arrivalPos="60.01" depart="50964" departPos="7.08" from="nt6_nt5" id="random123_50400" to="nt16_np9" type="griddistrandom"/>
    <trip arrivalPos="40.25" depart="50971" departPos="172.27" from="nt5_nt6" id="random124_50400" to="nt16_np8" type="griddistrandom"/>
    <trip arrivalPos="149.13" depart="50975" departPos="32.54" from="nt11_nt15" id="random125_50400" to="nt13_nt9" type="griddistrandom"/>
    <trip arrivalPos="31.71" depart="50975" departPos="167.83" from="nt8_nt4" id="random126_50400" to="nt13_nt9" type="griddistrandom"/>
    <trip arrivalPos="101.61" depart="50982" departPos="35.58" from="nt9_nt13" id="random127_50400" to="nt4_nt3" type="griddistrandom"/>
    <trip arrivalPos="140.17" depart="50996" departPos="22.19" from="np2_nt2" id="random128_50400" to="nt13_nt14" type="griddistrandom"/>
    <trip arrivalPos="121.45" depart="50997" departPos="16.02" from="nt7_nt8" id="random129_50400" to="nt3_nt4" type="griddistrandom"/>
    <trip arrivalPos="59.60" depart="51001" departPos="0.41" from="nt7_nt3" id="random130_50400" to="nt2_nt3" type="griddistrandom"/>
    <trip arrivalPos="33.93" depart="51004" departPos="33.14" from="np12_nt13" id="random131_50400" to="nt3_np3" type="griddistrandom"/>
    <trip arrivalPos="40.25" depart="51010" departPos="64.82" from="nt6_nt5" id="random132_50400" to="nt4_np4" type="griddistrandom"/>
    <trip arrivalPos="33.68" depart="51014" departPos="172.77" from="nt4_nt8" id="random133_50400" to="nt15_np10" type="griddistrandom"/>
    <trip arrivalPos="41.75" depart="51015" departPos="118.55" from="nt12_nt8" id="random134_50400" to="nt3_np3" type="griddistrandom"/>
    <trip arrivalPos="60.42" depart="51023" departPos="9.34" from="nt9_nt10" id="random135_50400" to="nt9_np14" type="griddistrandom"/>
    <trip arrivalPos="49.19" depart="51027" departPos="34.63" from="np13_nt13" id="random136_50400" to="nt13_nt9" type="griddistrandom"/>
    <trip arrivalPos="57.71" depart="51055" departPos="62.31" from="np13_nt13" id="random137_50400" to="nt4_nt8" type="griddistrandom"/>
    <trip arrivalPos="106.71" depart="51055" departPos="110.01" from="nt10_nt6" id="random138_50400" to="nt10_nt6" type="griddistrandom"/>
    <trip arrivalPos="5.05" depart="51065" departPos="55.19" from="nt12_nt16" id="random139_50400" to="nt5_nt1" type="griddistrandom"/>
    <trip arrivalPos="37.88" depart="51068" departPos="101.31" from="nt14_nt13" id="random140_50400" to="nt9_np14" type="griddistrandom"/>
    <trip arrivalPos="63.64" depart="51076" departPos="45.67" from="nt15_nt14" id="random141_50400" to="nt9_np14" type="griddistrandom"/>
    <trip arrivalPos="143.04" depart="51077" departPos="5.11" from="nt2_nt1" id="random142_50400" to="nt14_nt10" type="griddistrandom"/>
    <trip arrivalPos="62.71" depart="51080" departPos="136.37" from="nt5_nt1" id="random143_50400" to="nt16_nt12" type="griddistrandom"/>
    <trip arrivalPos="163.97" depart="51087" departPos="123.34" from="nt3_nt4" id="random144_50400" to="nt14_nt15" type="griddistrandom"/>
    <trip arrivalPos="35.36" depart="51088" departPos="38.74" from="np15_nt5" id="random145_50400" to="nt9_nt5" type="griddistrandom"/>
    <trip arrivalPos="100.11" depart="51092" departPos="24.68" from="np1_nt1" id="random146_50400" to="nt11_nt15" type="griddistrandom"/>
    <trip arrivalPos="95.65" depart="51099" departPos="182.17" from="nt7_nt8" id="random147_50400" to="nt4_nt3" type="griddistrandom"/>
    <trip arrivalPos="3.31" depart="51102" departPos="159.31" from="nt7_nt6" id="random148_50400" to="nt4_np4" type="griddistrandom"/>
    <trip arrivalPos="48.26" depart="51107" departPos="174.12" from="nt6_nt2" id="random149_50400" to="nt4_nt8" type="griddistrandom"/>
    <trip arrivalPos="14.44" depart="51113" departPos="26.90" from="nt1_nt2" id="random150_50400" to="nt8_np6" type="griddistrandom"/>
    <trip arrivalPos="112.09" depart="51115" departPos="9.79" from="np14_nt9" id="random151_50400" to="nt9_nt13" type="griddistrandom"/>
    <trip arrivalPos="51.76" depart="51120" departPos="43.37" from="nt10_nt6" id="random152_50400" to="nt15_np10" type="griddistrandom"/>
    <trip arrivalPos="88.16" depart="51137" departPos="75.80" from="nt4_nt8" id="random153_50400" to="nt11_nt15" type="griddistrandom"/>
    <trip arrivalPos="130.32" depart="51142" departPos="29.60" from="np13_nt13" id="random154_50400" to="nt5_nt9" type="griddistrandom"/>
    <trip arrivalPos="97.24" depart="51145" departPos="112.72" from="nt14_nt15" id="random155_50400" to="nt8_nt12" type="griddistrandom"/>
    <trip arrivalPos="141.73" depart="51156" departPos="81.42" from="nt7_nt3" id="random156_50400" to="nt5_nt6" type="griddistrandom"/>
    <trip arrivalPos="66.63" depart="51160" departPos="128.42" from="nt11_nt12" id="random157_50400" to="nt1_nt5" type="griddistrandom"/>
    <trip arrivalPos="79.98" depart="51168" departPos="114.08" from="nt6_nt10" id="random158_50400" to="nt12_nt16" type="griddistrandom"/>
    <trip arrivalPos="130.63" depart="51171" departPos="72.32" from="nt3_nt2" id="random159_50400" to="nt10_nt6" type="griddistrandom"/>
    <trip arrivalPos="2.22" depart="51178" departPos="50.38" from="np12_nt13" id="random160_50400" to="nt9_np14" type="griddistrandom"/>
    <trip arrivalPos="67.87" depart="51178" departPos="177.71" from="nt9_nt5" id="random161_50400" to="nt7_nt8" type="griddistrandom"/>
    <trip arrivalPos="87.30" depart="51181" departPos="146.90" from="nt8_nt4" id="random162_50400" to="nt11_nt15" type="griddistrandom"/>
    <trip arrivalPos="6.40" depart="51188" departPos="7.84" from="np2_nt2" id="random163_50400" to="nt11_nt12" type="griddistrandom"/>
    <trip arrivalPos="81.29" depart="51194" departPos="127.64" from="nt9_nt5" id="random164_50400" to="nt9_nt10" type="griddistrandom"/>
    <trip arrivalPos="42.05" depart="51195" departPos="181.59" from="nt2_nt3" id="random165_50400" to="nt6_nt5" type="griddistrandom"/>
    <trip arrivalPos="134.72" depart="51196" departPos="41.40" from="nt5_nt1" id="random166_50400" to="nt3_nt2" type="griddistrandom"/>
    <trip arrivalPos="25.64" depart="51199" departPos="6.23" from="nt11_nt12" id="random167_50400" to="nt14_np11" type="griddistrandom"/>
    <trip arrivalPos="10.61" depart="51210" departPos="118.16" from="nt6_nt2" id="random168_50400" to="nt11_nt12" type="griddistrandom"/>
    <trip arrivalPos="0.82" depart="51213" departPos="47.43" from="nt10_nt6" id="random169_50400" to="nt16_nt15" type="griddistrandom"/>
    <trip arrivalPos="143.65" depart="51221" departPos="142.52" from="nt1_nt2" id="random170_50400" to="nt11_nt7" type="griddistrandom"/>
    <trip arrivalPos="123.51" depart="51221" departPos="150.27" from="nt7_nt11" id="random171_50400" to="nt2_nt1" type="griddistrandom"/>
    <trip arrivalPos="158.02" depart="51225" departPos="134.44" from="nt11_nt12" id="random172_50400" to="nt7_nt3" type="griddistrandom"/>
    <trip arrivalPos="97.93" depart="51244" departPos="79.01" from="nt4_nt8" id="random173_50400" to="nt15_nt16" type="griddistrandom"/>
    <trip arrivalPos="58.47" depart="51251" departPos="184.06" from="nt5_nt6" id="random174_50400" to="nt7_nt8" type="griddistrandom"/>
    <trip arrivalPos="6.65" depart="51254" departPos="122.94" from="nt12_nt11" id="random175_50400" to="nt12_nt11" type="griddistrandom"/>
    <trip arrivalPos="149.38" depart="51263" departPos="156.98" from="nt11_nt10" id="random176_50400" to="nt7_nt3" type="griddistrandom"/>
    <trip arrivalPos="30.86" depart="51263" departPos="127.32" from="nt2_nt6" id="random177_50400" to="nt2_np2" type="griddistrandom"/>
    <trip arrivalPos="106.38" depart="51267" departPos="179.53" from="nt5_nt6" id="random178_50400" to="nt8_nt4" type="griddistrandom"/>
    <trip arrivalPos="132.63" depart="51268" departPos="6.80" from="np6_nt8" id="random179_50400" to="nt14_nt15" type="griddistrandom"/>
    <trip arrivalPos="148.61" depart="51279" departPos="64.60" from="nt10_nt9" id="random180_50400" to="nt16_nt12" type="griddistrandom"/>
    <trip arrivalPos="59.03" depart="51283" departPos="72.16" from="np10_nt15" id="random181_50400" to="nt16_nt15" type="griddistrandom"/>
    <trip arrivalPos="16.09" depart="51286" departPos="34.99" from="np10_nt15" id="random182_50400" to="nt2_nt6" type="griddistrandom"/>
    <trip arrivalPos="86.06" depart="51289" departPos="62.88" from="np2_nt2" id="random183_50400" to="nt6_nt2" type="griddistrandom"/>
    <trip arrivalPos="160.86" depart="51290" departPos="123.27" from="nt5_nt1" id="random184_50400" to="nt13_nt14" type="griddistrandom"/>
    <trip arrivalPos="36.21" depart="51293" departPos="65.76" from="nt9_nt5" id="random185_50400" to="nt4_np5" type="griddistrandom"/>
    <trip arrivalPos="28.49" depart="51298" departPos="47.01" from="np2_nt2" id="random186_50400" to="nt6_nt5" type="griddistrandom"/>
    <trip arrivalPos="59.35" depart="51303" departPos="35.85" from="nt5_nt9" id="random187_50400" to="nt9_nt10" type="griddistrandom"/>
    <trip arrivalPos="159.77" depart="51304" departPos="161.61" from="nt12_nt16" id="random188_50400" to="nt8_nt7" type="griddistrandom"/>
    <trip arrivalPos="88.76" depart="51309" departPos="81.47" from="nt11_nt7" id="random189_50400" to="nt14_nt13" type="griddistrandom"/>
    <trip arrivalPos="43.79" depart="51321" departPos="94.78" from="nt3_nt4" id="random190_50400" to="nt5_nt1" type="griddistrandom"/>
    <trip arrivalPos="9.85" depart="51324" departPos="119.46" from="nt2_nt6" id="random191_50400" to="nt1_np16" type="griddistrandom"/>
    <trip arrivalPos="54.17" depart="51333" departPos="150.87" from="nt4_nt3" id="random192_50400" to="nt6_nt5" type="griddistrandom"/>
    <trip arrivalPos="119.10" depart="51334" departPos="91.64" from="nt9_nt13" id="random193_50400" to="nt3_nt4" type="griddistrandom"/>
    <trip arrivalPos="71.51" depart="51336" departPos="114.73" from="nt16_nt12" id="random194_50400" to="nt9_nt5" type="griddistrandom"/>
    <trip arrivalPos="19.54" depart="51344" departPos="94.73" from="nt7_nt8" id="random195_50400" to="nt10_nt9" type="griddistrandom"/>
    <trip arrivalPos="157.52" depart="51366" departPos="47.94" from="np9_nt16" id="random196_50400" to="nt12_nt16" type="griddistrandom"/>
    <trip arrivalPos="4.74" depart="51368" departPos="100.26" from="nt12_nt8" id="random197_50400" to="nt16_np9" type="griddistrandom"/>
    <trip arrivalPos="76.39" depart="51368" departPos="16.65" from="np2_nt2" id="random198_50400" to="nt1_nt5" type="griddistrandom"/>
    <trip arrivalPos="58.26" depart="51370" departPos="165.57" from="nt9_nt10" id="random199_50400" to="nt15_nt16" type="griddistrandom"/>
    <trip arrivalPos="51.56" depart="51375" departPos="60.66" from="np9_nt16" id="random200_50400" to="nt9_np14" type="griddistrandom"/>
    <trip arrivalPos="69.75" depart="51388" departPos="27.84" from="np2_nt2" id="random201_50400" to="nt14_nt13" type="griddistrandom"/>
    <trip arrivalPos="44.63" depart="51395" departPos="119.33" from="nt5_nt9" id="random202_50400" to="nt16_np8" type="griddistrandom"/>
    <trip arrivalPos="48.64" depart="51397" departPos="175.36" from="nt3_nt2" id="random203_50400" to="nt16_np8" type="griddistrandom"/>
    <trip arrivalPos="40.35" depart="51398" departPos="84.37" from="nt7_nt8" id="random204_50400" to="nt12_nt11" type="griddistrandom"/>
    <trip arrivalPos="138.31" depart="51406" departPos="35.18" from="np4_nt4" id="random205_50400" to="nt6_nt5" type="griddistrandom"/>
    <trip arrivalPos="64.13" depart="51424" departPos="29.70" from="nt4_nt8" id="random206_50400" to="nt4_nt3" type="griddistrandom"/>
    <trip arrivalPos="50.64" depart="51428" departPos="25.83" from="nt8_nt12" id="random207_50400" to="nt10_nt9" type="griddistrandom"/>
    <trip arrivalPos="96.55" depart="51432" departPos="105.50" from="nt10_nt9" id="random208_50400" to="nt16_nt12" type="griddistrandom"/>
    <trip arrivalPos="112.72" depart="51434" departPos="169.29" from="nt3_nt7" id="random209_50400" to="nt7_nt3" type="griddistrandom"/>
    <trip arrivalPos="101.38" depart="51440" departPos="35.06" from="nt11_nt12" id="random210_50400" to="nt9_nt10" type="griddistrandom"/>
    <trip arrivalPos="87.95" depart="51446" departPos="85.58" from="nt5_nt9" id="random211_50400" to="nt16_nt15" type="griddistrandom"/>
    <trip arrivalPos="5.93" depart="51446" departPos="122.58" from="nt2_nt1" id="random212_50400" to="nt15_nt16" type="griddistrandom"/>
    <trip arrivalPos="17.52" depart="51448" departPos="62.52" from="np4_nt4" id="random213_50400" to="nt3_np3" type="griddistrandom"/>
    <trip arrivalPos="176.63" depart="51452" departPos="63.13" from="nt3_nt4" id="random214_50400" to="nt13_nt14" type="griddistrandom"/>
    <trip arrivalPos="59.05" depart="51454" departPos="45.81" from="nt11_nt12" id="random215_50400" to="nt14_np11" type="griddistrandom"/>
    <trip arrivalPos="25.45" depart="51457" departPos="38.40" from="nt10_nt14" id="random216_50400" to="nt10_nt11" type="griddistrandom"/>
    <trip arrivalPos="57.28" depart="51458" departPos="76.99" from="nt10_nt14" id="random217_50400" to="nt6_nt7" type="griddistrandom"/>
    <trip arrivalPos="21.19" depart="51459" departPos="154.12" from="nt10_nt11" id="random218_50400" to="nt3_nt2" type="griddistrandom"/>