<routes>
    <trip arrivalPos="87.22" depart="43205" departPos="97.84" from="nt13_nt9" id="random0_43200" to="nt13_nt9" type="griddistrandom"/>
    <trip arrivalPos="60.42" depart="43227" departPos="34.46" from="nt8_nt4" id="random1_43200" to="nt4_np4" type="griddistrandom"/>
    <trip arrivalPos="29.20" depart="43228" departPos="55.75" from="np4_nt4" id="random2_43200" to="nt8_np6" type="griddistrandom"/>
    <trip arrivalPos="158.62" depart="43236" departPos="3.82" from="np9_nt16" id="random3_43200" to="nt9_nt5" type="griddistrandom"/>
    <trip arrivalPos="111.33" depart="43237" departPos="124.71" from="nt6_nt10" id="random4_43200" to="nt9_nt10" type="griddistrandom"/>
    <trip arrivalPos="58.56" depart="43242" departPos="6.93" from="np2_nt2" id="random5_43200" to="nt8_np6" type="griddistrandom"/>
    <trip arrivalPos="92.73" depart="43246" departPos="22.18" from="np3_nt3" id="random6_43200" to="nt6_nt2" type="griddistrandom"/>
    <trip arrivalPos="46.04" depart="43248" departPos="61.94" from="nt11_nt15" id="random7_43200" to="nt13_np12" type="griddistrandom"/>
    <trip arrivalPos="146.09" depart="43250" departPos="172.39" from="nt4_nt3" id="random8_43200" to="nt2_nt1" type="griddistrandom"/>
    <trip arrivalPos="45.29" depart="43256" departPos="40.79" from="nt5_nt9" id="random9_43200" to="nt8_nt12" type="griddistrandom"/>
    <trip arrivalPos="73.54" depart="43275" departPos="40.94" from="np11_nt14" id="random10_43200" to="nt12_nt16" type="griddistrandom"/>
    <trip arrivalPos="116.08" depart="43283" departPos="176.74" from="nt10_nt6" id="random11_43200" to="nt10_nt9" type="griddistrandom"/>
    <trip arrivalPos="145.58" depart="43287" departPos="52.21" from="nt9_nt5" id="random12_43200" to="nt3_nt7" type="griddistrandom"/>
    <trip arrivalPos="60.08" depart="43289" departPos="46.72" from="np5_nt4" id="random13_43200" to="nt7_nt8" type="griddistrandom"/>
    <trip arrivalPos="66.41" depart="43296" departPos="139.25" from="nt5_nt1" id="random14_43200" to="nt16_nt15" type="griddistrandom"/>
    <trip arrivalPos="129.04" depart="43296" departPos="85.19" from="nt14_nt10" id="random15_43200" to="nt9_nt13" type="griddistrandom"/>
    <trip arrivalPos="57.90" depart="43305" departPos="2.27" from="np14_nt9" id="random16_43200" to="nt1_nt2" type="griddistrandom"/>
    <trip arrivalPos="116.16" depart="43307" departPos="97.50" from="nt5_nt1" id="random17_43200" to="nt10_nt9" type="griddistrandom"/>
    <trip arrivalPos="47.36" depart="43310" departPos="20.55" from="nt7_nt6" id="random18_43200" to="nt16_np8" type="griddistrandom"/>
    <trip arrivalPos="16.75" depart="43327" departPos="124.92" from="nt6_nt10" id="random19_43200" to="nt16_nt12" type="griddistrandom"/>
    <trip arrivalPos="56.46" depart="43328" departPos="6.03" from="np1_nt1" id="random20_43200" to="nt16_np8" type="griddistrandom"/>
    <trip arrivalPos="86.30" depart="43331" departPos="126.33" from="nt13_nt9" id="random21_43200" to="nt1_nt2" type="griddistrandom"/>
    <trip arrivalPos="109.54" depart="43335" departPos="78.34" from="nt6_nt2" id="random22_43200" to="nt10_nt9" type="griddistrandom"/>
    <trip arrivalPos="126.58" depart="43336" departPos="26.49" from="nt1_nt2" id="random23_43200" to="nt11_nt7" type="griddistrandom"/>
    <trip arrivalPos="160.25" depart="43341" departPos="160.67" from="nt8_nt7" id="random24_43200" to="nt13_nt14" type="griddistrandom"/>
    <trip arrivalPos="18.75" depart="43350" departPos="115.26" from="nt14_nt13" id="random25_43200" to="nt12_np7" type="griddistrandom"/>
    <trip arrivalPos="82.84" depart="43350" departPos="117.51" from="nt8_nt4" id="random26_43200" to="nt2_nt6" type="griddistrandom"/>
    <trip arrivalPos="151.78" depart="43357" departPos="40.35" from="np5_nt4" id="random27_43200" to="nt14_nt13" type="griddistrandom"/>
    <trip arrivalPos="48.80" depart="43359" departPos="3.70" from="np16_nt1" id="random28_43200" to="nt4_nt3" type="griddistrandom"/>
    <trip arrivalPos="44.31" depart="43364" departPos="103.06" from="nt11_nt10" id="random29_43200" to="nt10_nt6" type="griddistrandom"/>
    <trip arrivalPos="136.14" depart="43366" departPos="17.95" from="np15_nt5" id="random30_43200" to="nt2_nt1" type="griddistrandom"/>
    <trip arrivalPos="60.61" depart="43368" departPos="92.94" from="nt4_nt8" id="random31_43200" to="nt10_nt6" type="griddistrandom"/>
    <trip arrivalPos="129.44" depart="43368" departPos="136.82" from="nt14_nt15" id="random32_43200" to="nt9_nt13" type="griddistrandom"/>
    <trip arrivalPos="32.88" depart="43382" departPos="21.93" from="np8_nt16" id="random33_43200" to="nt8_nt4" type="griddistrandom"/>
    <trip arrivalPos="59.27" depart="43387" departPos="109.68" from="nt6_nt2" id="random34_43200" to="nt5_nt1" type="griddistrandom"/>
    <trip arrivalPos="46.79" depart="43394" departPos="113.94" from="nt7_nt6" id="random35_43200" to="nt3_np3" type="griddistrandom"/>
    <trip arrivalPos="54.13" depart="43399" departPos="37.48" from="nt6_nt5" id="random36_43200" to="nt12_nt11" type="griddistrandom"/>
    <trip arrivalPos="13.60" depart="43403" departPos="131.46" from="nt6_nt7" id="random37_43200" to="nt6_nt5" type="griddistrandom"/>
    <trip arrivalPos="36.48" depart="43419" departPos="142.43" from="nt5_nt6" id="random38_43200" to="nt7_nt11" type="griddistrandom"/>
    <trip arrivalPos="53.45" depart="43419" departPos="106.97" from="nt7_nt3" id="random39_43200" to="nt1_np1" type="griddistrandom"/>
    <trip arrivalPos="81.00" depart="43421" departPos="141.01" from="nt2_nt1" id="random40_43200" to="nt7_nt6" type="griddistrandom"/>
    <trip arrivalPos="42.60" depart="43425" departPos="6.16" from="nt6_nt5" id="random41_43200" to="nt13_np13" type="griddistrandom"/>
    <trip arrivalPos="65.96" depart="43427" departPos="18.30" from="np3_nt3" id="random42_43200" to="nt12_np7" type="griddistrandom"/>
    <trip arrivalPos="116.03" depart="43431" departPos="124.41" from="nt11_nt15" id="random43_43200" to="nt1_nt5" type="griddistrandom"/>
    <trip arrivalPos="34.20" depart="43435" departPos="89.53" from="nt11_nt10" id="random44_43200" to="nt1_np1" type="griddistrandom"/>
    <trip arrivalPos="95.21" depart="43439" departPos="16.21" from="nt7_nt8" id="random45_43200" to="nt9_nt10" type="griddistrandom"/>
    <trip arrivalPos="51.07" depart="43447" departPos="62.91" from="np6_nt8" id="random46_43200" to="nt13_np13" type="griddistrandom"/>
    <trip arrivalPos="48.14" depart="43449" departPos="159.85" from="nt9_nt5" id="random47_43200" to="nt12_np7" type="griddistrandom"/>
    <trip arrivalPos="13.92" depart="43453" departPos="137.11" from="nt12_nt16" id="random48_43200" to="nt13_np12" type="griddistrandom"/>
    <trip arrivalPos="91.16" depart="43454" departPos="4.85" from="np3_nt3" id="random49_43200" to="nt10_nt14" type="griddistrandom"/>
    <trip arrivalPos="55.64" depart="43456" departPos="8.14" from="nt9_nt5" id="random50_43200" to="nt4_np4" type="griddistrandom"/>
    <trip arrivalPos="13.66" depart="43465" departPos="24.53" from="nt5_nt9" id="random51_43200" to="nt11_nt7" type="griddistrandom"/>
    <trip arrivalPos="148.77" depart="43475" departPos="123.62" from="nt16_nt12" id="random52_43200" to="nt11_nt7" type="griddistrandom"/>
    <trip arrivalPos="68.52" depart="43476" departPos="105.73" from="nt9_nt5" id="random53_43200" to="nt12_nt16" type="griddistrandom"/>
    <trip arrivalPos="37.83" depart="43482" departPos="40.43" from="nt7_nt6" id="random54_43200" to="nt16_nt12" type="griddistrandom"/>
    <trip arrivalPos="57.49" depart="43490" departPos="133.29" from="nt9_nt10" id="random55_43200" to="nt11_nt7" type="griddistrandom"/>
    <trip arrivalPos="120.58" depart="43493" departPos="143.30" from="nt7_nt6" id="random56_43200" to="nt5_nt9" type="griddistrandom"/>
    <trip arrivalPos="69.79" depart="43494" departPos="182.14" from="nt11_nt10" id="random57_43200" to="nt16_nt12" type="griddistrandom"/>
    <trip arrivalPos="51.21" depart="43505" departPos="49.38" from="nt6_nt10" id="random58_43200" to="nt1_np1" type="griddistrandom"/>
    <trip arrivalPos="43.64" depart="43517" departPos="35.84" from="nt12_nt16" id="random59_43200" to="nt16_np8" type="griddistrandom"/>
    <trip arrivalPos="163.82" depart="43517" departPos="75.23" from="nt14_nt13" id="random60_43200" to="nt15_nt14" type="griddistrandom"/>
    <trip arrivalPos="25.16" depart="43519" departPos="76.43" from="nt15_nt11" id="random61_43200" to="nt14_nt13" type="griddistrandom"/>
    <trip arrivalPos="118.13" depart="43522" departPos="53.79" from="nt4_nt3" id="random62_43200" to="nt10_nt6" type="griddistrandom"/>
    <trip arrivalPos="3.98" depart="43529" departPos="11.68" from="nt13_nt14" id="random63_43200" to="nt8_nt4" type="griddistrandom"/>
    <trip arrivalPos="84.52" depart="43532" departPos="139.06" from="nt9_nt13" id="random64_43200" to="nt9_nt13" type="griddistrandom"/>
    <trip arrivalPos="6.99" depart="43532" departPos="158.75" from="nt14_nt13" id="random65_43200" to="nt8_np6" type="griddistrandom"/>
    <trip arrivalPos="81.95" depart="43534" departPos="23.66" from="nt10_nt6" id="random66_43200" to="nt4_nt3" type="griddistrandom"/>
    <trip arrivalPos="148.18" depart="43534" departPos="36.80" from="np13_nt13" id="random67_43200" to="nt5_nt1" type="griddistrandom"/>
    <trip arrivalPos="141.80" depart="43536" departPos="15.88" from="nt6_nt5" id="random68_43200" to="nt6_nt2" type="griddistrandom"/>
    <trip arrivalPos="46.66" depart="43539" departPos="143.53" from="nt8_nt4" id="random69_43200" to="nt11_nt7" type="griddistrandom"/>
    <trip arrivalPos="1.69" depart="43540" departPos="149.80" from="nt2_nt3" id="random70_43200" to="nt1_nt5" type="griddistrandom"/>
    <trip arrivalPos="29.85" depart="43550" departPos="151.76" from="nt10_nt9" id="random71_43200" to="nt9_np14" type="griddistrandom"/>
    <trip arrivalPos="44.91" depart="43555" departPos="172.24" from="nt12_nt8" id="random72_43200" to="nt5_nt1" type="griddistrandom"/>
    <trip arrivalPos="131.58" depart="43563" departPos="8.53" from="np15_nt5" id="random73_43200" to="nt2_nt6" type="griddistrandom"/>
    <trip arrivalPos="120.61" depart="43564" departPos="8.12" from="np3_nt3" id="random74_43200" to="nt4_nt8" type="griddistrandom"/>
    <trip arrivalPos="130.19" depart="43565" departPos="8.32" from="nt9_nt10" id="random75_43200" to="nt11_nt15" type="griddistrandom"/>
    <trip arrivalPos="54.37" depart="43568" departPos="109.02" from="nt6_nt2" id="random76_43200" to="nt4_np5" type="griddistrandom"/>
    <trip arrivalPos="154.87" depart="43568" departPos="135.99" from="nt1_nt5" id="random77_43200" to="nt4_nt3" type="griddistrandom"/>
    <trip arrivalPos="167.89" depart="43588" departPos="128.91" from="nt3_nt4" id="random78_43200" to="nt10_nt14" type="griddistrandom"/>
    <trip arrivalPos="34.50" depart="43597" departPos="119.43" from="nt11_nt10" id="random79_43200" to="nt3_np3" type="griddistrandom"/>
    <trip arrivalPos="58.70" depart="43602" departPos="87.83" from="nt10_nt11" id="random80_43200" to="nt15_nt14" type="griddistrandom"/>
    <trip arrivalPos="57.55" depart="43604" departPos="99.37" from="nt13_nt14" id="random81_43200" to="nt7_nt3" type="griddistrandom"/>
    <trip arrivalPos="20.61" depart="43613" departPos="19.09" from="nt3_nt4" id="random82_43200" to="nt9_nt5" type="griddistrandom"/>
    <trip arrivalPos="30.28" depart="43615" departPos="168.67" from="nt9_nt13" id="random83_43200" to="nt14_nt15" type="griddistrandom"/>
    <trip arrivalPos="140.50" depart="43615" departPos="63.91" from="nt5_nt9" id="random84_43200" to="nt12_nt11" type="griddistrandom"/>
    <trip arrivalPos="51.66" depart="43617" departPos="10.44" from="np8_nt16" id="random85_43200" to="nt1_np16" type="griddistrandom"/>
    <trip arrivalPos="53.15" depart="43620" departPos="144.14" from="nt11_nt15" id="random86_43200" to="nt13_np12" type="griddistrandom"/>
    <trip arrivalPos="106.82" depart="43635" departPos="19.40" from="nt16_nt15" id="random87_43200" to="nt6_nt2" type="griddistrandom"/>
    <trip arrivalPos="70.56" depart="43636" departPos="171.54" from="nt11_nt10" id="random88_43200" to="nt4_np5" type="griddistrandom"/>
    <trip arrivalPos="157.76" depart="43639" departPos="83.38" from="nt6_nt2" id="random89_43200" to="nt8_nt4" type="griddistrandom"/>
    <trip arrivalPos="153.97" depart="43641" departPos="152.36" from="nt15_nt11" id="random90_43200" to="nt8_nt7" type="griddistrandom"/>
    <trip arrivalPos="92.44" depart="43646" departPos="14.13" from="nt1_nt5" id="random91_43200" to="nt10_nt6" type="griddistrandom"/>
    <trip arrivalPos="13.24" depart="43647" departPos="48.35" from="nt5_nt1" id="random92_43200" to="nt2_np2" type="griddistrandom"/>
    <trip arrivalPos="108.82" depart="43648" departPos="29.72" from="np10_nt15" id="random93_43200" to="nt3_nt2" type="griddistrandom"/>
    <trip arrivalPos="9.47" depart="43649" departPos="11.50" from="np15_nt5" id="random94_43200" to="nt1_np16" type="griddistrandom"/>
    <trip arrivalPos="48.32" depart="43650" departPos="4.68" from="nt10_nt9" id="random95_43200" to="nt11_nt12" type="griddistrandom"/>
    <trip arrivalPos="49.49" depart="43653" departPos="53.50" from="nt2_nt3" id="random96_43200" to="nt6_nt2" type="griddistrandom"/>
    <trip arrivalPos="107.43" depart="43655" departPos="95.74" from="nt13_nt14" id="random97_43200" to="nt3_nt7" type="griddistrandom"/>
    <trip arrivalPos="15.72" depart="43656" departPos="41.03" from="np13_nt13" id="random98_43200" to="nt4_np5" type="griddistrandom"/>
    <trip arrivalPos="4.87" depart="43657" departPos="93.72" from="nt3_nt2" id="random99_43200" to="nt7_nt6" type="griddistrandom"/>
    <trip arrivalPos="58.89" depart="43658" departPos="23.75" from="np5_nt4" id="random100_43200" to="nt11_nt12" type="griddistrandom"/>
    <trip arrivalPos="4.91" depart="43661" departPos="70.70" from="nt2_nt1" id="random101_43200" to="nt3_nt2" type="griddistrandom"/>
    <trip arrivalPos="106.85" depart="43665" departPos="55.24" from="np7_nt12" id="random102_43200" to="nt6_nt2" type="griddistrandom"/>
    <trip arrivalPos="39.17" depart="43672" departPos="25.02" from="nt12_nt11" id="random103_43200" to="nt15_nt14" type="griddistrandom"/>
    <trip arrivalPos="24.89" depart="43672" departPos="51.90" from="np1_nt1" id="random104_43200" to="nt5_np15" type="griddistrandom"/>
    <trip arrivalPos="59.40" depart="43673" departPos="141.12" from="nt11_nt15" id="random105_43200" to="nt16_np8" type="griddistrandom"/>
    <trip arrivalPos="18.03" depart="43673" departPos="41.35" from="np15_nt5" id="random106_43200" to="nt16_nt15" type="griddistrandom"/>
    <trip arrivalPos="88.48" depart="43679" departPos="46.84" from="nt11_nt12" id="random107_43200" to="nt11_nt7" type="griddistrandom"/>
    <trip arrivalPos="112.52" depart="43686" departPos="19.16" from="np9_nt16" id="random108_43200" to="nt7_nt6" type="griddistrandom"/>
    <trip arrivalPos="16.30" depart="43698" departPos="58.40" from="np16_nt1" id="random109_43200" to="nt11_nt15" type="griddistrandom"/>
    <trip arrivalPos="25.90" depart="43713" departPos="95.99" from="nt16_nt12" id="random110_43200" to="nt16_nt15" type="griddistrandom"/>
    <trip arrivalPos="81.00" depart="43715" departPos="88.15" from="nt10_nt9" id="random111_43200" to="nt9_nt13" type="griddistrandom"/>
    <trip arrivalPos="117.43" depart="43717" departPos="70.54" from="nt13_nt9" id="random112_43200" to="nt10_nt14" type="griddistrandom"/>
    <trip arrivalPos="21.55" depart="43718" departPos="173.42" from="nt6_nt10" id="random113_43200" to="nt7_nt3" type="griddistrandom"/>
    <trip arrivalPos="166.01" depart="43727" departPos="11.33" from="np5_nt4" id="random114_43200" to="nt11_nt15" type="griddistrandom"/>
    <trip arrivalPos="94.04" depart="43730" departPos="37.23" from="np11_nt14" id="random115_43200" to="nt5_nt9" type="griddistrandom"/>
    <trip arrivalPos="14.69" depart="43736" departPos="34.16" from="np11_nt14" id="random116_43200" to="nt3_np3" type="griddistrandom"/>
    <trip arrivalPos="39.81" depart="43736" departPos="0.66" from="np11_nt14" id="random117_43200" to="nt15_np10" type="griddistrandom"/>
    <trip arrivalPos="43.72" depart="43740" departPos="121.95" from="nt5_nt6" id="random118_43200" to="nt3_nt7" type="griddistrandom"/>
    <trip arrivalPos="15.84" depart="43741" departPos="102.24" from="nt12_nt8" id="random119_43200" to="nt4_np5" type="griddistrandom"/>
    <trip arrivalPos="124.61" depart="43744" departPos="49.51" from="np8_nt16" id="random120_43200" to="nt10_nt11" type="griddistrandom"/>
    <trip arrivalPos="1.87" depart="43751" departPos="34.16" from="nt6_nt7" id="random121_43200" to="nt8_nt12" type="griddistrandom"/>
    <trip arrivalPos="167.97" depart="43753" departPos="142.86" from="nt10_nt9" id="random122_43200" to="nt8_nt7" type="griddistrandom"/>
    <trip arrivalPos="60.01" depart="43764" departPos="7.08" from="nt6_nt5" id="random123_43200" to="nt16_np9" type="griddistrandom"/>
    <trip arrivalPos="40.25" depart="43771" departPos="172.27" from="nt5_nt6" id="random124_43200" to="nt16_np8" type="griddistrandom"/>
    <trip arrivalPos="149.13" depart="43775" departPos="32.54" from="nt11_nt15" id="random125_43200" to="nt13_nt9" type="griddistrandom"/>
    <trip arrivalPos="31.71" depart="43775" departPos="167.83" from="nt8_nt4" id="random126_43200" to="nt13_nt9" type="griddistrandom"/>
    <trip arrivalPos="101.61" depart="43782" departPos="35.58" from="nt9_nt13" id="random127_43200" to="nt4_nt3" type="griddistrandom"/>
    <trip arrivalPos="140.17" depart="43796" departPos="22.19" from="np2_nt2" id="random128_43200" to="nt13_nt14" type="griddistrandom"/>
    <trip arrivalPos="121.45" depart="43797" departPos="16.02" from="nt7_nt8" id="random129_43200" to="nt3_nt4" type="griddistrandom"/>
    <trip arrivalPos="59.60" depart="43801" departPos="0.41" from="nt7_nt3" id="random130_43200" to="nt2_nt3" type="griddistrandom"/>
    <trip arrivalPos="33.93" depart="43804" departPos="33.14" from="np12_nt13" id="random131_43200" to="nt3_np3" type="griddistrandom"/>
    <trip arrivalPos="40.25" depart="43810" departPos="64.82" from="nt6_nt5" id="random132_43200" to="nt4_np4" type="griddistrandom"/>
    <trip arrivalPos="33.68" depart="43814" departPos="172.77" from="nt4_nt8" id="random133_43200" to="nt15_np10" type="griddistrandom"/>
    <trip arrivalPos="41.75" depart="43815" departPos="118.55" from="nt12_nt8" id="random134_43200" to="nt3_np3" type="griddistrandom"/>
    <trip arrivalPos="60.42" depart="43823" departPos="9.34" from="nt9_nt10" id="random135_43200" to="nt9_np14" type="griddistrandom"/>
    <trip arrivalPos="49.19" depart="43827" departPos="34.63" from="np13_nt13" id="random136_43200" to="nt13_nt9" type="griddistrandom"/>
    <trip arrivalPos="57.71" depart="43855" departPos="62.31" from="np13_nt13" id="random137_43200" to="nt4_nt8" type="griddistrandom"/>
    <trip arrivalPos="106.71" depart="43855" departPos="110.01" from="nt10_nt6" id="random138_43200" to="nt10_nt6" type="griddistrandom"/>
    <trip arrivalPos="5.05" depart="43865" departPos="55.19" from="nt12_nt16" id="random139_43200" to="nt5_nt1" type="griddistrandom"/>
    <trip arrivalPos="37.88" depart="43868" departPos="101.31" from="nt14_nt13" id="random140_43200" to="nt9_np14" type="griddistrandom"/>
    <trip arrivalPos="63.64" depart="43876" departPos="45.67" from="nt15_nt14" id="random141_43200" to="nt9_np14" type="griddistrandom"/>
    <trip arrivalPos="143.04" depart="43877" departPos="5.11" from="nt2_nt1" id="random142_43200" to="nt14_nt10" type="griddistrandom"/>
    <trip arrivalPos="62.71" depart="43880" departPos="136.37" from="nt5_nt1" id="random143_43200" to="nt16_nt12" type="griddistrandom"/>
    <trip arrivalPos="163.97" depart="43887" departPos="123.34" from="nt3_nt4" id="random144_43200" to="nt14_nt15" type="griddistrandom"/>
    <trip arrivalPos="35.36" depart="43888" departPos="38.74" from="np15_nt5" id="random145_43200" to="nt9_nt5" type="griddistrandom"/>
    <trip arrivalPos="100.11" depart="43892" departPos="24.68" from="np1_nt1" id="random146_43200" to="nt11_nt15" type="griddistrandom"/>
    <trip arrivalPos="95.65" depart="43899" departPos="182.17" from="nt7_nt8" id="random147_43200" to="nt4_nt3" type="griddistrandom"/>
    <trip arrivalPos="3.31" depart="43902" departPos="159.31" from="nt7_nt6" id="random148_43200" to="nt4_np4" type="griddistrandom"/>
    <trip arrivalPos="48.26" depart="43907" departPos="174.12" from="nt6_nt2" id="random149_43200" to="nt4_nt8" type="griddistrandom"/>
    <trip arrivalPos="14.44" depart="43913" departPos="26.90" from="nt1_nt2" id="random150_43200" to="nt8_np6" type="griddistrandom"/>
    <trip arrivalPos="112.09" depart="43915" departPos="9.79" from="np14_nt9" id="random151_43200" to="nt9_nt13" type="griddistrandom"/>
    <trip arrivalPos="51.76" depart="43920" departPos="43.37" from="nt10_nt6" id="random152_43200" to="nt15_np10" type="griddistrandom"/>
    <trip arrivalPos="88.16" depart="43937" departPos="75.80" from="nt4_nt8" id="random153_43200" to="nt11_nt15" type="griddistrandom"/>
    <trip arrivalPos="130.32" depart="43942" departPos="29.60" from="np13_nt13" id="random154_43200" to="nt5_nt9" type="griddistrandom"/>
    <trip arrivalPos="97.24" depart="43945" departPos="112.72" from="nt14_nt15" id="random155_43200" to="nt8_nt12" type="griddistrandom"/>
    <trip arrivalPos="141.73" depart="43956" departPos="81.42" from="nt7_nt3" id="random156_43200" to="nt5_nt6" type="griddistrandom"/>
    <trip arrivalPos="66.63" depart="43960" departPos="128.42" from="nt11_nt12" id="random157_43200" to="nt1_nt5" type="griddistrandom"/>
    <trip arrivalPos="79.98" depart="43968" departPos="114.08" from="nt6_nt10" id="random158_43200" to="nt12_nt16" type="griddistrandom"/>
    <trip arrivalPos="130.63" depart="43971" departPos="72.32" from="nt3_nt2" id="random159_43200" to="nt10_nt6" type="griddistrandom"/>
    <trip arrivalPos="2.22" depart="43978" departPos="50.38" from="np12_nt13" id="random160_43200" to="nt9_np14" type="griddistrandom"/>
    <trip arrivalPos="67.87" depart="43978" departPos="177.71" from="nt9_nt5" id="random161_43200" to="nt7_nt8" type="griddistrandom"/>
    <trip arrivalPos="87.30" depart="43981" departPos="146.90" from="nt8_nt4" id="random162_43200" to="nt11_nt15" type="griddistrandom"/>
    <trip arrivalPos="6.40" depart="43988" departPos="7.84" from="np2_nt2" id="random163_43200" to="nt11_nt12" type="griddistrandom"/>
    <trip arrivalPos="81.29" depart="43994" departPos="127.64" from="nt9_nt5" id="random164_43200" to="nt9_nt10" type="griddistrandom"/>
    <trip arrivalPos="42.05" depart="43995" departPos="181.59" from="nt2_nt3" id="random165_43200" to="nt6_nt5" type="griddistrandom"/>
    <trip arrivalPos="134.72" depart="43996" departPos="41.40" from="nt5_nt1" id="random166_43200" to="nt3_nt2" type="griddistrandom"/>
    <trip arrivalPos="25.64" depart="43999" departPos="6.23" from="nt11_nt12" id="random167_43200" to="nt14_np11" type="griddistrandom"/>
    <trip arrivalPos="10.61" depart="44010" departPos="118.16" from="nt6_nt2" id="random168_43200" to="nt11_nt12" type="griddistrandom"/>
    <trip arrivalPos="0.82" depart="44013" departPos="47.43" from="nt10_nt6" id="random169_43200" to="nt16_nt15" type="griddistrandom"/>
    <trip arrivalPos="143.65" depart="44021" departPos="142.52" from="nt1_nt2" id="random170_43200" to="nt11_nt7" type="griddistrandom"/>
    <trip arrivalPos="123.51" depart="44021" departPos="150.27" from="nt7_nt11" id="random171_43200" to="nt2_nt1" type="griddistrandom"/>
    <trip arrivalPos="158.02" depart="44025" departPos="134.44" from="nt11_nt12" id="random172_43200" to="nt7_nt3" type="griddistrandom"/>
    <trip arrivalPos="97.93" depart="44044" departPos="79.01" from="nt4_nt8" id="random173_43200" to="nt15_nt16" type="griddistrandom"/>
    <trip arrivalPos="58.47" depart="44051" departPos="184.06" from="nt5_nt6" id="random174_43200" to="nt7_nt8" type="griddistrandom"/>
    <trip arrivalPos="6.65" depart="44054" departPos="122.94" from="nt12_nt11" id="random175_43200" to="nt12_nt11" type="griddistrandom"/>
    <trip arrivalPos="149.38" depart="44063" departPos="156.98" from="nt11_nt10" id="random176_43200" to="nt7_nt3" type="griddistrandom"/>
    <trip arrivalPos="30.86" depart="44063" departPos="127.32" from="nt2_nt6" id="random177_43200" to="nt2_np2" type="griddistrandom"/>
    <trip arrivalPos="106.38" depart="44067" departPos="179.53" from="nt5_nt6" id="random178_43200" to="nt8_nt4" type="griddistrandom"/>
    <trip arrivalPos="132.63" depart="44068" departPos="6.80" from="np6_nt8" id="random179_43200" to="nt14_nt15" type="griddistrandom"/>
    <trip arrivalPos="148.61" depart="44079" departPos="64.60" from="nt10_nt9" id="random180_43200" to="nt16_nt12" type="griddistrandom"/>
    <trip arrivalPos="59.03" depart="44083" departPos="72.16" from="np10_nt15" id="random181_43200" to="nt16_nt15" type="griddistrandom"/>
    <trip arrivalPos="16.09" depart="44086" departPos="34.99" from="np10_nt15" id="random182_43200" to="nt2_nt6" type="griddistrandom"/>
    <trip arrivalPos="86.06" depart="44089" departPos="62.88" from="np2_nt2" id="random183_43200" to="nt6_nt2" type="griddistrandom"/>
    <trip arrivalPos="160.86" depart="44090" departPos="123.27" from="nt5_nt1" id="random184_43200" to="nt13_nt14" type="griddistrandom"/>
    <trip arrivalPos="36.21" depart="44093" departPos="65.76" from="nt9_nt5" id="random185_43200" to="nt4_np5" type="griddistrandom"/>
    <trip arrivalPos="28.49" depart="44098" departPos="47.01" from="np2_nt2" id="random186_43200" to="nt6_nt5" type="griddistrandom"/>
    <trip arrivalPos="59.35" depart="44103" departPos="35.85" from="nt5_nt9" id="random187_43200" to="nt9_nt10" type="griddistrandom"/>
    <trip arrivalPos="159.77" depart="44104" departPos="161.61" from="nt12_nt16" id="random188_43200" to="nt8_nt7" type="griddistrandom"/>
    <trip arrivalPos="88.76" depart="44109" departPos="81.47" from="nt11_nt7" id="random189_43200" to="nt14_nt13" type="griddistrandom"/>
    <trip arrivalPos="43.79" depart="44121" departPos="94.78" from="nt3_nt4" id="random190_43200" to="nt5_nt1" type="griddistrandom"/>
    <trip arrivalPos="9.85" depart="44124" departPos="119.46" from="nt2_nt6" id="random191_43200" to="nt1_np16" type="griddistrandom"/>
    <trip arrivalPos="54.17" depart="44133" departPos="150.87" from="nt4_nt3" id="random192_43200" to="nt6_nt5" type="griddistrandom"/>
    <trip arrivalPos="119.10" depart="44134" departPos="91.64" from="nt9_nt13" id="random193_43200" to="nt3_nt4" type="griddistrandom"/>
    <trip arrivalPos="71.51" depart="44136" departPos="114.73" from="nt16_nt12" id="random194_43200" to="nt9_nt5" type="griddistrandom"/>
    <trip arrivalPos="19.54" depart="44144" departPos="94.73" from="nt7_nt8" id="random195_43200" to="nt10_nt9" type="griddistrandom"/>
    <trip arrivalPos="157.52" depart="44166" departPos="47.94" from="np9_nt16" id="random196_43200" to="nt12_nt16" type="griddistrandom"/>
    <trip arrivalPos="4.74" depart="44168" departPos="100.26" from="nt12_nt8" id="random197_43200" to="nt16_np9" type="griddistrandom"/>
    <trip arrivalPos="76.39" depart="44168" departPos="16.65" from="np2_nt2" id="random198_43200" to="nt1_nt5" type="griddistrandom"/>
    <trip arrivalPos="58.26" depart="44170" departPos="165.57" from="nt9_nt10" id="random199_43200" to="nt15_nt16" type="griddistrandom"/>
    <trip arrivalPos="51.56" depart="44175" departPos="60.66" from="np9_nt16" id="random200_43200" to="nt9_np14" type="griddistrandom"/>
    <trip arrivalPos="69.75" depart="44188" departPos="27.84" from="np2_nt2" id="random201_43200" to="nt14_nt13" type="griddistrandom"/>
    <trip arrivalPos="44.63" depart="44195" departPos="119.33" from="nt5_nt9" id="random202_43200" to="nt16_np8" type="griddistrandom"/>
    <trip arrivalPos="48.64" depart="44197" departPos="175.36" from="nt3_nt2" id="random203_43200" to="nt16_np8" type="griddistrandom"/>
    <trip arrivalPos="40.35" depart="44198" departPos="84.37" from="nt7_nt8" id="random204_43200" to="nt12_nt11" type="griddistrandom"/>
    <trip arrivalPos="138.31" depart="44206" departPos="35.18" from="np4_nt4" id="random205_43200" to="nt6_nt5" type="griddistrandom"/>
    <trip arrivalPos="64.13" depart="44224" departPos="29.70" from="nt4_nt8" id="random206_43200" to="nt4_nt3" type="griddistrandom"/>
    <trip arrivalPos="50.64" depart="44228" departPos="25.83" from="nt8_nt12" id="random207_43200" to="nt10_nt9" type="griddistrandom"/>
    <trip arrivalPos="96.55" depart="44232" departPos="105.50" from="nt10_nt9" id="random208_43200" to="nt16_nt12" type="griddistrandom"/>
    <trip arrivalPos="112.72" depart="44234" departPos="169.29" from="nt3_nt7" id="random209_43200" to="nt7_nt3" type="griddistrandom"/>
    <trip arrivalPos="101.38" depart="44240" departPos="35.06" from="nt11_nt12" id="random210_43200" to="nt9_nt10" type="griddistrandom"/>
    <trip arrivalPos="87.95" depart="44246" departPos="85.58" from="nt5_nt9" id="random211_43200" to="nt16_nt15" type="griddistrandom"/>
    <trip arrivalPos="5.93" depart="44246" departPos="122.58" from="nt2_nt1" id="random212_43200" to="nt15_nt16" type="griddistrandom"/>
    <trip arrivalPos="17.52" depart="44248" departPos="62.52" from="np4_nt4" id="random213_43200" to="nt3_np3" type="griddistrandom"/>
    <trip arrivalPos="176.63" depart="44252" departPos="63.13" from="nt3_nt4" id="random214_43200" to="nt13_nt14" type="griddistrandom"/>
    <trip arrivalPos="59.05" depart="44254" departPos="45.81" from="nt11_nt12" id="random215_43200" to="nt14_np11" type="griddistrandom"/>
    <trip arrivalPos="25.45" depart="44257" departPos="38.40" from="nt10_nt14" id="random216_43200" to="nt10_nt11" type="griddistrandom"/>
    <trip arrivalPos="57.28" depart="44258" departPos="76.99" from="nt10_nt14" id="random217_43200" to="nt6_nt7" type="griddistrandom"/>
    <trip arrivalPos="21.19" depart="44259" departPos="154.12" from="nt10_nt11" id="random218_43200" to="nt3_nt2" type="griddistrandom"/>