<routes>
    <trip arrivalPos="164.86" depart="6" departPos="28.11" from="np1_nt1" id="random0" to="nt5_nt1" type="griddistrandom"/>
    <trip arrivalPos="127.87" depart="11" departPos="21.24" from="nt14_nt10" id="random1" to="nt4_nt8" type="griddistrandom"/>
    <trip arrivalPos="53.45" depart="12" departPos="58.66" from="np6_nt8" id="random2" to="nt7_nt8" type="griddistrandom"/>
    <trip arrivalPos="45.01" depart="12" departPos="158.94" from="nt14_nt15" id="random3" to="nt12_np7" type="griddistrandom"/>
    <trip arrivalPos="77.64" depart="18" departPos="121.35" from="nt9_nt5" id="random4" to="nt14_nt13" type="griddistrandom"/>
    <trip arrivalPos="48.59" depart="26" departPos="52.00" from="nt12_nt8" id="random5" to="nt12_nt11" type="griddistrandom"/>
    <trip arrivalPos="122.62" depart="37" departPos="68.60" from="nt2_nt1" id="random6" to="nt8_nt4" type="griddistrandom"/>
    <trip arrivalPos="59.99" depart="44" departPos="23.87" from="nt14_nt10" id="random7" to="nt10_nt11" type="griddistrandom"/>
    <trip arrivalPos="126.95" depart="44" departPos="127.83" from="nt3_nt7" id="random8" to="nt4_nt8" type="griddistrandom"/>
    <trip arrivalPos="4.41" depart="47" departPos="17.07" from="nt5_nt1" id="random9" to="nt14_np11" type="griddistrandom"/>
    <trip arrivalPos="178.62" depart="55" departPos="168.57" from="nt11_nt12" id="random10" to="nt13_nt9" type="griddistrandom"/>
    <trip arrivalPos="138.87" depart="56" departPos="111.03" from="nt8_nt7" id="random11" to="nt9_nt10" type="griddistrandom"/>
    <trip arrivalPos="22.69" depart="71" departPos="46.47" from="np12_nt13" id="random12" to="nt14_np11" type="griddistrandom"/>
    <trip arrivalPos="103.85" depart="75" departPos="173.48" from="nt12_nt16" id="random13" to="nt15_nt16" type="griddistrandom"/>
    <trip arrivalPos="69.77" depart="78" departPos="93.50" from="nt1_nt2" id="random14" to="nt14_np11" type="griddistrandom"/>
    <trip arrivalPos="39.78" depart="83" departPos="58.89" from="nt7_nt6" id="random15" to="nt12_np7" type="griddistrandom"/>
    <trip arrivalPos="22.91" depart="89" departPos="2.85" from="np3_nt3" id="random16" to="nt11_nt7" type="griddistrandom"/>
    <trip arrivalPos="165.98" depart="95" departPos="134.01" from="nt7_nt3" id="random17" to="nt7_nt3" type="griddistrandom"/>
    <trip arrivalPos="57.12" depart="102" departPos="109.84" from="nt10_nt6" id="random18" to="nt8_np6" type="griddistrandom"/>
    <trip arrivalPos="23.67" depart="103" departPos="165.68" from="nt10_nt11" id="random19" to="nt15_np10" type="griddistrandom"/>
    <trip arrivalPos="152.86" depart="110" departPos="27.11" from="nt9_nt5" id="random20" to="nt6_nt10" type="griddistrandom"/>
    <trip arrivalPos="27.58" depart="117" departPos="9.88" from="nt3_nt2" id="random21" to="nt6_nt7" type="griddistrandom"/>
    <trip arrivalPos="126.51" depart="141" departPos="19.52" from="np8_nt16" id="random22" to="nt10_nt6" type="griddistrandom"/>
    <trip arrivalPos="7.31" depart="143" departPos="172.09" from="nt13_nt14" id="random23" to="nt9_nt5" type="griddistrandom"/>
    <trip arrivalPos="88.34" depart="160" departPos="86.95" from="nt11_nt15" id="random24" to="nt5_nt1" type="griddistrandom"/>
    <trip arrivalPos="17.37" depart="162" departPos="22.16" from="nt7_nt11" id="random25" to="nt7_nt8" type="griddistrandom"/>
    <trip arrivalPos="91.17" depart="168" departPos="30.16" from="nt7_nt3" id="random26" to="nt12_nt8" type="griddistrandom"/>
    <trip arrivalPos="104.57" depart="168" departPos="104.95" from="nt10_nt14" id="random27" to="nt8_nt12" type="griddistrandom"/>
    <trip arrivalPos="77.29" depart="175" departPos="102.29" from="nt9_nt13" id="random28" to="nt2_nt1" type="griddistrandom"/>
    <trip arrivalPos="159.02" depart="179" departPos="45.89" from="np14_nt9" id="random29" to="nt6_nt2" type="griddistrandom"/>
    <trip arrivalPos="70.64" depart="185" departPos="51.05" from="np11_nt14" id="random30" to="nt4_nt8" type="griddistrandom"/>
    <trip arrivalPos="10.43" depart="197" departPos="155.34" from="nt1_nt2" id="random31" to="nt9_np14" type="griddistrandom"/>
    <trip arrivalPos="81.37" depart="201" departPos="44.72" from="np15_nt5" id="random32" to="nt7_nt3" type="griddistrandom"/>
    <trip arrivalPos="179.99" depart="212" departPos="1.08" from="nt9_nt10" id="random33" to="nt3_nt4" type="griddistrandom"/>
    <trip arrivalPos="49.60" depart="216" departPos="58.22" from="nt2_nt6" id="random34" to="nt9_np14" type="griddistrandom"/>
    <trip arrivalPos="39.23" depart="227" departPos="101.99" from="nt4_nt8" id="random35" to="nt9_nt10" type="griddistrandom"/>
    <trip arrivalPos="4.17" depart="231" departPos="21.91" from="np13_nt13" id="random36" to="nt4_np5" type="griddistrandom"/>
    <trip arrivalPos="27.04" depart="232" departPos="25.86" from="np14_nt9" id="random37" to="nt9_np14" type="griddistrandom"/>
    <trip arrivalPos="16.55" depart="242" departPos="64.91" from="np5_nt4" id="random38" to="nt9_nt10" type="griddistrandom"/>
    <trip arrivalPos="51.06" depart="250" departPos="139.69" from="nt7_nt11" id="random39" to="nt12_nt16" type="griddistrandom"/>
    <trip arrivalPos="36.81" depart="269" departPos="22.38" from="nt5_nt6" id="random40" to="nt4_np5" type="griddistrandom"/>
    <trip arrivalPos="127.13" depart="270" departPos="57.55" from="nt13_nt14" id="random41" to="nt6_nt7" type="griddistrandom"/>
    <trip arrivalPos="95.15" depart="281" departPos="53.75" from="np2_nt2" id="random42" to="nt4_nt3" type="griddistrandom"/>
    <trip arrivalPos="42.23" depart="283" departPos="88.43" from="nt14_nt15" id="random43" to="nt8_np6" type="griddistrandom"/>
    <trip arrivalPos="110.01" depart="284" departPos="150.52" from="nt13_nt14" id="random44" to="nt6_nt10" type="griddistrandom"/>
    <trip arrivalPos="63.43" depart="291" departPos="7.51" from="nt13_nt14" id="random45" to="nt16_nt15" type="griddistrandom"/>
    <trip arrivalPos="28.78" depart="299" departPos="122.97" from="nt14_nt10" id="random46" to="nt13_nt14" type="griddistrandom"/>
    <trip arrivalPos="18.78" depart="304" departPos="97.38" from="nt14_nt15" id="random47" to="nt4_np4" type="griddistrandom"/>
    <trip arrivalPos="26.63" depart="305" departPos="88.64" from="nt13_nt14" id="random48" to="nt8_nt4" type="griddistrandom"/>
    <trip arrivalPos="93.74" depart="308" departPos="54.36" from="np2_nt2" id="random49" to="nt8_nt12" type="griddistrandom"/>
    <trip arrivalPos="8.37" depart="316" departPos="13.71" from="nt10_nt6" id="random50" to="nt10_nt9" type="griddistrandom"/>
    <trip arrivalPos="122.65" depart="329" departPos="6.41" from="np16_nt1" id="random51" to="nt16_nt15" type="griddistrandom"/>
    <trip arrivalPos="6.13" depart="332" departPos="47.30" from="nt16_nt15" id="random52" to="nt14_np11" type="griddistrandom"/>
    <trip arrivalPos="32.18" depart="339" departPos="118.55" from="nt15_nt11" id="random53" to="nt11_nt7" type="griddistrandom"/>
    <trip arrivalPos="65.76" depart="340" departPos="6.25" from="np5_nt4" id="random54" to="nt16_np9" type="griddistrandom"/>
    <trip arrivalPos="124.40" depart="344" departPos="84.45" from="nt10_nt9" id="random55" to="nt3_nt2" type="griddistrandom"/>
    <trip arrivalPos="65.35" depart="346" departPos="179.42" from="nt2_nt1" id="random56" to="nt14_np11" type="griddistrandom"/>
    <trip arrivalPos="108.25" depart="358" departPos="56.03" from="np5_nt4" id="random57" to="nt12_nt8" type="griddistrandom"/>
    <trip arrivalPos="1.05" depart="363" departPos="95.76" from="nt7_nt3" id="random58" to="nt11_nt15" type="griddistrandom"/>
    <trip arrivalPos="123.97" depart="369" departPos="30.82" from="np1_nt1" id="random59" to="nt12_nt16" type="griddistrandom"/>
    <trip arrivalPos="90.34" depart="376" departPos="107.86" from="nt7_nt3" id="random60" to="nt9_nt10" type="griddistrandom"/>
    <trip arrivalPos="120.75" depart="386" departPos="66.95" from="nt2_nt1" id="random61" to="nt9_nt13" type="griddistrandom"/>
    <trip arrivalPos="9.38" depart="386" departPos="54.24" from="nt3_nt7" id="random62" to="nt16_np9" type="griddistrandom"/>
    <trip arrivalPos="173.92" depart="400" departPos="1.19" from="np10_nt15" id="random63" to="nt11_nt7" type="griddistrandom"/>
    <trip arrivalPos="44.05" depart="401" departPos="116.23" from="nt7_nt11" id="random64" to="nt13_np13" type="griddistrandom"/>
    <trip arrivalPos="12.33" depart="416" departPos="146.63" from="nt13_nt14" id="random65" to="nt4_np4" type="griddistrandom"/>
    <trip arrivalPos="1.48" depart="417" departPos="87.97" from="nt10_nt9" id="random66" to="nt1_np16" type="griddistrandom"/>
    <trip arrivalPos="178.89" depart="418" departPos="45.39" from="np4_nt4" id="random67" to="nt12_nt11" type="griddistrandom"/>
    <trip arrivalPos="37.37" depart="425" departPos="108.62" from="nt14_nt13" id="random68" to="nt7_nt8" type="griddistrandom"/>
    <trip arrivalPos="1.41" depart="430" departPos="9.45" from="nt16_nt15" id="random69" to="nt7_nt3" type="griddistrandom"/>
    <trip arrivalPos="152.07" depart="430" departPos="181.79" from="nt2_nt3" id="random70" to="nt5_nt1" type="griddistrandom"/>
    <trip arrivalPos="53.97" depart="432" departPos="99.33" from="nt5_nt1" id="random71" to="nt3_nt4" type="griddistrandom"/>
    <trip arrivalPos="109.58" depart="433" departPos="109.70" from="nt14_nt15" id="random72" to="nt1_nt5" type="griddistrandom"/>
    <trip arrivalPos="128.00" depart="433" departPos="90.55" from="nt3_nt4" id="random73" to="nt7_nt11" type="griddistrandom"/>
    <trip arrivalPos="11.79" depart="434" departPos="58.62" from="nt15_nt14" id="random74" to="nt16_nt15" type="griddistrandom"/>
    <trip arrivalPos="88.67" depart="443" departPos="87.85" from="nt7_nt8" id="random75" to="nt16_nt12" type="griddistrandom"/>
    <trip arrivalPos="3.86" depart="447" departPos="129.46" from="nt8_nt7" id="random76" to="nt15_nt14" type="griddistrandom"/>
    <trip arrivalPos="17.41" depart="466" departPos="61.62" from="nt10_nt6" id="random77" to="nt13_np12" type="griddistrandom"/>
    <trip arrivalPos="107.90" depart="471" departPos="25.44" from="np8_nt16" id="random78" to="nt8_nt4" type="griddistrandom"/>
    <trip arrivalPos="54.45" depart="471" departPos="24.34" from="nt6_nt7" id="random79" to="nt4_nt3" type="griddistrandom"/>
    <trip arrivalPos="124.93" depart="473" departPos="154.62" from="nt4_nt3" id="random80" to="nt9_nt10" type="griddistrandom"/>
    <trip arrivalPos="156.75" depart="473" departPos="143.32" from="nt5_nt1" id="random81" to="nt6_nt5" type="griddistrandom"/>
    <trip arrivalPos="123.81" depart="480" departPos="139.06" from="nt2_nt1" id="random82" to="nt14_nt13" type="griddistrandom"/>
    <trip arrivalPos="7.57" depart="481" departPos="39.13" from="np2_nt2" id="random83" to="nt13_np12" type="griddistrandom"/>
    <trip arrivalPos="37.53" depart="486" departPos="54.41" from="nt12_nt8" id="random84" to="nt9_nt5" type="griddistrandom"/>
    <trip arrivalPos="63.98" depart="503" departPos="59.73" from="np13_nt13" id="random85" to="nt10_nt14" type="griddistrandom"/>
    <trip arrivalPos="5.73" depart="506" departPos="57.78" from="np4_nt4" id="random86" to="nt7_nt11" type="griddistrandom"/>
    <trip arrivalPos="22.40" depart="512" departPos="41.87" from="np14_nt9" id="random87" to="nt16_nt15" type="griddistrandom"/>
    <trip arrivalPos="26.64" depart="515" departPos="25.52" from="np8_nt16" id="random88" to="nt14_np11" type="griddistrandom"/>
    <trip arrivalPos="11.34" depart="522" departPos="20.06" from="np12_nt13" id="random89" to="nt8_np6" type="griddistrandom"/>
    <trip arrivalPos="45.63" depart="528" departPos="119.97" from="nt3_nt7" id="random90" to="nt2_np2" type="griddistrandom"/>
    <trip arrivalPos="54.37" depart="530" departPos="81.92" from="nt8_nt4" id="random91" to="nt1_np1" type="griddistrandom"/>
    <trip arrivalPos="140.16" depart="532" departPos="39.44" from="np1_nt1" id="random92" to="nt11_nt15" type="griddistrandom"/>
    <trip arrivalPos="18.89" depart="535" departPos="7.79" from="nt8_nt7" id="random93" to="nt7_nt11" type="griddistrandom"/>
    <trip arrivalPos="29.15" depart="537" departPos="169.08" from="nt2_nt3" id="random94" to="nt7_nt8" type="griddistrandom"/>
    <trip arrivalPos="47.32" depart="545" departPos="90.66" from="nt10_nt6" id="random95" to="nt1_np1" type="griddistrandom"/>
    <trip arrivalPos="10.33" depart="546" departPos="22.69" from="np16_nt1" id="random96" to="nt4_np5" type="griddistrandom"/>
    <trip arrivalPos="49.68" depart="551" departPos="74.50" from="nt7_nt11" id="random97" to="nt1_np1" type="griddistrandom"/>
    <trip arrivalPos="93.73" depart="554" departPos="25.60" from="np9_nt16" id="random98" to="nt6_nt7" type="griddistrandom"/>
    <trip arrivalPos="66.94" depart="555" departPos="51.18" from="np15_nt5" id="random99" to="nt15_nt16" type="griddistrandom"/>
    <trip arrivalPos="78.27" depart="555" departPos="139.85" from="nt3_nt2" id="random100" to="nt12_nt11" type="griddistrandom"/>
    <trip arrivalPos="75.97" depart="576" departPos="31.01" from="np8_nt16" id="random101" to="nt6_nt7" type="griddistrandom"/>
    <trip arrivalPos="67.15" depart="583" departPos="142.39" from="nt14_nt10" id="random102" to="nt7_nt6" type="griddistrandom"/>
    <trip arrivalPos="149.64" depart="585" departPos="0.75" from="np11_nt14" id="random103" to="nt12_nt11" type="griddistrandom"/>
    <trip arrivalPos="182.25" depart="598" departPos="58.43" from="nt8_nt7" id="random104" to="nt11_nt12" type="griddistrandom"/>
    <trip arrivalPos="122.53" depart="599" departPos="49.04" from="np4_nt4" id="random105" to="nt10_nt9" type="griddistrandom"/>
    <trip arrivalPos="113.18" depart="607" departPos="10.36" from="nt2_nt6" id="random106" to="nt8_nt12" type="griddistrandom"/>
    <trip arrivalPos="54.89" depart="608" departPos="96.47" from="nt4_nt3" id="random107" to="nt4_nt3" type="griddistrandom"/>
    <trip arrivalPos="54.53" depart="609" departPos="99.21" from="nt12_nt16" id="random108" to="nt4_nt8" type="griddistrandom"/>
    <trip arrivalPos="50.14" depart="610" departPos="1.42" from="nt5_nt1" id="random109" to="nt8_nt4" type="griddistrandom"/>
    <trip arrivalPos="79.96" depart="615" departPos="129.97" from="nt15_nt14" id="random110" to="nt8_nt4" type="griddistrandom"/>
    <trip arrivalPos="121.02" depart="619" departPos="59.13" from="np7_nt12" id="random111" to="nt2_nt3" type="griddistrandom"/>
    <trip arrivalPos="30.34" depart="628" departPos="140.06" from="nt3_nt7" id="random112" to="nt8_np6" type="griddistrandom"/>
    <trip arrivalPos="62.08" depart="628" departPos="2.77" from="np6_nt8" id="random113" to="nt14_nt15" type="griddistrandom"/>
    <trip arrivalPos="177.75" depart="633" departPos="22.58" from="nt4_nt8" id="random114" to="nt5_nt9" type="griddistrandom"/>
    <trip arrivalPos="96.76" depart="633" departPos="98.88" from="nt10_nt6" id="random115" to="nt11_nt12" type="griddistrandom"/>
    <trip arrivalPos="142.75" depart="637" departPos="5.18" from="nt5_nt6" id="random116" to="nt12_nt16" type="griddistrandom"/>
    <trip arrivalPos="130.19" depart="638" departPos="143.68" from="nt1_nt2" id="random117" to="nt13_nt9" type="griddistrandom"/>
    <trip arrivalPos="66.84" depart="665" departPos="10.74" from="nt9_nt5" id="random118" to="nt11_nt7" type="griddistrandom"/>
    <trip arrivalPos="120.82" depart="673" departPos="8.86" from="nt2_nt3" id="random119" to="nt15_nt14" type="griddistrandom"/>
    <trip arrivalPos="84.10" depart="691" departPos="47.60" from="np1_nt1" id="random120" to="nt14_nt15" type="griddistrandom"/>
    <trip arrivalPos="104.97" depart="691" departPos="177.23" from="nt9_nt13" id="random121" to="nt6_nt7" type="griddistrandom"/>
    <trip arrivalPos="38.47" depart="693" departPos="98.98" from="nt7_nt8" id="random122" to="nt4_np4" type="griddistrandom"/>
    <trip arrivalPos="132.68" depart="694" departPos="140.63" from="nt11_nt15" id="random123" to="nt14_nt13" type="griddistrandom"/>
    <trip arrivalPos="44.38" depart="701" departPos="96.45" from="nt3_nt4" id="random124" to="nt5_nt1" type="griddistrandom"/>
    <trip arrivalPos="67.05" depart="706" departPos="152.72" from="nt11_nt10" id="random125" to="nt3_nt2" type="griddistrandom"/>
    <trip arrivalPos="14.68" depart="730" departPos="56.17" from="np16_nt1" id="random126" to="nt5_nt1" type="griddistrandom"/>
    <trip arrivalPos="33.46" depart="740" departPos="32.29" from="np13_nt13" id="random127" to="nt8_np6" type="griddistrandom"/>
    <trip arrivalPos="96.32" depart="743" departPos="105.41" from="nt11_nt7" id="random128" to="nt2_nt1" type="griddistrandom"/>
    <trip arrivalPos="31.76" depart="746" departPos="89.39" from="nt12_nt16" id="random129" to="nt14_np11" type="griddistrandom"/>
    <trip arrivalPos="180.64" depart="749" departPos="87.73" from="nt13_nt9" id="random130" to="nt8_nt7" type="griddistrandom"/>
    <trip arrivalPos="131.99" depart="749" departPos="23.59" from="nt6_nt5" id="random131" to="nt12_nt11" type="griddistrandom"/>
    <trip arrivalPos="21.16" depart="752" departPos="55.77" from="np2_nt2" id="random132" to="nt5_nt1" type="griddistrandom"/>
    <trip arrivalPos="175.22" depart="760" departPos="55.99" from="np7_nt12" id="random133" to="nt1_nt2" type="griddistrandom"/>
    <trip arrivalPos="27.70" depart="763" departPos="107.81" from="nt11_nt7" id="random134" to="nt9_np14" type="griddistrandom"/>
    <trip arrivalPos="9.90" depart="774" departPos="2.60" from="np1_nt1" id="random135" to="nt3_np3" type="griddistrandom"/>
    <trip arrivalPos="87.08" depart="776" departPos="54.34" from="nt11_nt7" id="random136" to="nt9_nt5" type="griddistrandom"/>
    <trip arrivalPos="9.03" depart="777" departPos="105.66" from="nt6_nt10" id="random137" to="nt12_nt11" type="griddistrandom"/>
    <trip arrivalPos="61.43" depart="783" departPos="40.01" from="nt7_nt8" id="random138" to="nt8_np6" type="griddistrandom"/>
    <trip arrivalPos="155.98" depart="783" departPos="64.71" from="nt14_nt15" id="random139" to="nt11_nt7" type="griddistrandom"/>
    <trip arrivalPos="58.16" depart="790" departPos="101.38" from="nt12_nt8" id="random140" to="nt3_np3" type="griddistrandom"/>
    <trip arrivalPos="112.42" depart="798" departPos="129.03" from="nt6_nt10" id="random141" to="nt1_nt2" type="griddistrandom"/>
    <trip arrivalPos="29.07" depart="800" departPos="85.55" from="nt5_nt6" id="random142" to="nt2_np2" type="griddistrandom"/>
    <trip arrivalPos="148.45" depart="803" departPos="58.28" from="nt13_nt9" id="random143" to="nt7_nt8" type="griddistrandom"/>
    <trip arrivalPos="70.86" depart="805" departPos="43.21" from="nt3_nt2" id="random144" to="nt16_nt12" type="griddistrandom"/>
    <trip arrivalPos="136.59" depart="808" departPos="165.19" from="nt15_nt16" id="random145" to="nt9_nt10" type="griddistrandom"/>
    <trip arrivalPos="106.16" depart="810" departPos="126.73" from="nt2_nt6" id="random146" to="nt7_nt8" type="griddistrandom"/>
    <trip arrivalPos="22.18" depart="810" departPos="100.54" from="nt6_nt10" id="random147" to="nt5_nt1" type="griddistrandom"/>
    <trip arrivalPos="43.26" depart="814" departPos="110.87" from="nt16_nt12" id="random148" to="nt13_np12" type="griddistrandom"/>
    <trip arrivalPos="30.74" depart="826" departPos="12.84" from="np13_nt13" id="random149" to="nt3_np3" type="griddistrandom"/>
    <trip arrivalPos="32.21" depart="829" departPos="173.76" from="nt7_nt8" id="random150" to="nt11_nt7" type="griddistrandom"/>
    <trip arrivalPos="130.96" depart="830" departPos="18.40" from="np11_nt14" id="random151" to="nt6_nt5" type="griddistrandom"/>
    <trip arrivalPos="39.20" depart="835" departPos="149.76" from="nt7_nt6" id="random152" to="nt1_np1" type="griddistrandom"/>
    <trip arrivalPos="4.17" depart="836" departPos="154.47" from="nt12_nt16" id="random153" to="nt10_nt6" type="griddistrandom"/>
    <trip arrivalPos="56.87" depart="837" departPos="159.55" from="nt13_nt14" id="random154" to="nt16_nt12" type="griddistrandom"/>
    <trip arrivalPos="30.13" depart="845" departPos="18.44" from="nt10_nt11" id="random155" to="nt11_nt7" type="griddistrandom"/>
    <trip arrivalPos="23.01" depart="849" departPos="5.79" from="np3_nt3" id="random156" to="nt14_np11" type="griddistrandom"/>
    <trip arrivalPos="58.29" depart="857" departPos="110.11" from="nt12_nt8" id="random157" to="nt12_nt16" type="griddistrandom"/>
    <trip arrivalPos="59.40" depart="896" departPos="29.25" from="np11_nt14" id="random158" to="nt10_nt9" type="griddistrandom"/>
    <trip arrivalPos="62.08" depart="900" departPos="67.29" from="nt12_nt8" id="random159" to="nt15_np10" type="griddistrandom"/>
    <trip arrivalPos="43.95" depart="903" departPos="48.59" from="np1_nt1" id="random160" to="nt13_np12" type="griddistrandom"/>
    <trip arrivalPos="20.62" depart="912" departPos="71.47" from="nt14_nt15" id="random161" to="nt6_nt10" type="griddistrandom"/>
    <trip arrivalPos="32.83" depart="916" departPos="27.60" from="np13_nt13" id="random162" to="nt1_np16" type="griddistrandom"/>
    <trip arrivalPos="49.96" depart="922" departPos="158.80" from="nt12_nt8" id="random163" to="nt13_nt14" type="griddistrandom"/>
    <trip arrivalPos="99.40" depart="923" departPos="45.72" from="nt9_nt10" id="random164" to="nt4_nt8" type="griddistrandom"/>
    <trip arrivalPos="15.57" depart="927" departPos="72.89" from="nt6_nt10" id="random165" to="nt14_nt15" type="griddistrandom"/>
    <trip arrivalPos="25.31" depart="930" departPos="179.64" from="nt2_nt3" id="random166" to="nt13_np13" type="griddistrandom"/>
    <trip arrivalPos="78.65" depart="941" departPos="96.33" from="nt9_nt5" id="random167" to="nt6_nt5" type="griddistrandom"/>
    <trip arrivalPos="30.02" depart="950" departPos="0.18" from="nt8_nt12" id="random168" to="nt1_np1" type="griddistrandom"/>
    <trip arrivalPos="0.10" depart="965" departPos="180.42" from="nt6_nt7" id="random169" to="nt14_nt13" type="griddistrandom"/>
    <trip arrivalPos="155.81" depart="967" departPos="107.14" from="nt8_nt4" id="random170" to="nt1_nt2" type="griddistrandom"/>
    <trip arrivalPos="108.61" depart="973" departPos="117.34" from="nt12_nt11" id="random171" to="nt15_nt14" type="griddistrandom"/>
    <trip arrivalPos="100.90" depart="983" departPos="132.46" from="nt15_nt11" id="random172" to="nt10_nt6" type="griddistrandom"/>
    <trip arrivalPos="10.47" depart="987" departPos="22.82" from="nt10_nt9" id="random173" to="nt16_np9" type="griddistrandom"/>
    <trip arrivalPos="109.39" depart="999" departPos="77.41" from="nt16_nt12" id="random174" to="nt14_nt10" type="griddistrandom"/>
    <trip arrivalPos="25.70" depart="1004" departPos="126.60" from="nt9_nt10" id="random175" to="nt15_np10" type="griddistrandom"/>
    <trip arrivalPos="44.07" depart="1005" departPos="84.02" from="nt10_nt11" id="random176" to="nt6_nt10" type="griddistrandom"/>
    <trip arrivalPos="107.43" depart="1007" departPos="82.40" from="nt9_nt13" id="random177" to="nt15_nt11" type="griddistrandom"/>
    <trip arrivalPos="0.14" depart="1024" departPos="48.48" from="np11_nt14" id="random178" to="nt5_np15" type="griddistrandom"/>
    <trip arrivalPos="74.04" depart="1025" departPos="124.85" from="nt14_nt13" id="random179" to="nt8_nt12" type="griddistrandom"/>
    <trip arrivalPos="96.43" depart="1026" departPos="141.51" from="nt7_nt8" id="random180" to="nt5_nt1" type="griddistrandom"/>
    <trip arrivalPos="2.32" depart="1029" departPos="13.89" from="nt6_nt10" id="random181" to="nt4_np5" type="griddistrandom"/>
    <trip arrivalPos="65.52" depart="1030" departPos="124.77" from="nt6_nt7" id="random182" to="nt4_nt3" type="griddistrandom"/>
    <trip arrivalPos="31.75" depart="1034" departPos="66.44" from="nt6_nt5" id="random183" to="nt7_nt11" type="griddistrandom"/>
    <trip arrivalPos="31.37" depart="1043" departPos="1.51" from="nt5_nt9" id="random184" to="nt5_np15" type="griddistrandom"/>
    <trip arrivalPos="1.28" depart="1062" departPos="39.70" from="nt8_nt4" id="random185" to="nt1_np1" type="griddistrandom"/>
    <trip arrivalPos="16.12" depart="1064" departPos="64.12" from="nt10_nt14" id="random186" to="nt8_nt4" type="griddistrandom"/>
    <trip arrivalPos="43.48" depart="1067" departPos="133.23" from="nt2_nt1" id="random187" to="nt14_nt15" type="griddistrandom"/>
    <trip arrivalPos="167.88" depart="1068" departPos="52.11" from="nt14_nt15" id="random188" to="nt15_nt16" type="griddistrandom"/>
    <trip arrivalPos="55.67" depart="1075" departPos="36.39" from="nt4_nt3" id="random189" to="nt13_np13" type="griddistrandom"/>
    <trip arrivalPos="91.69" depart="1077" departPos="101.98" from="nt12_nt16" id="random190" to="nt7_nt8" type="griddistrandom"/>
    <trip arrivalPos="126.65" depart="1085" departPos="101.37" from="nt16_nt12" id="random191" to="nt4_nt3" type="griddistrandom"/>
    <trip arrivalPos="12.07" depart="1090" departPos="23.80" from="nt16_nt15" id="random192" to="nt11_nt10" type="griddistrandom"/>
    <trip arrivalPos="33.79" depart="1093" departPos="42.31" from="nt10_nt11" id="random193" to="nt3_np3" type="griddistrandom"/>
    <trip arrivalPos="74.40" depart="1096" departPos="121.49" from="nt6_nt10" id="random194" to="nt13_np12" type="griddistrandom"/>
    <trip arrivalPos="103.96" depart="1106" departPos="45.32" from="nt3_nt7" id="random195" to="nt2_nt3" type="griddistrandom"/>
    <trip arrivalPos="63.94" depart="1123" departPos="114.86" from="nt14_nt10" id="random196" to="nt9_np14" type="griddistrandom"/>
    <trip arrivalPos="67.47" depart="1130" departPos="29.33" from="np13_nt13" id="random197" to="nt9_np14" type="griddistrandom"/>
    <trip arrivalPos="64.78" depart="1138" departPos="83.61" from="nt10_nt14" id="random198" to="nt4_nt8" type="griddistrandom"/>
    <trip arrivalPos="20.84" depart="1149" departPos="41.68" from="nt5_nt6" id="random199" to="nt8_np6" type="griddistrandom"/>
    <trip arrivalPos="12.57" depart="1158" departPos="0.92" from="nt12_nt8" id="random200" to="nt1_np1" type="griddistrandom"/>
    <trip arrivalPos="47.64" depart="1164" departPos="1.72" from="np15_nt5" id="random201" to="nt3_np3" type="griddistrandom"/>
    <trip arrivalPos="46.40" depart="1174" departPos="13.34" from="nt9_nt13" id="random202" to="nt16_nt15" type="griddistrandom"/>
    <trip arrivalPos="17.95" depart="1194" departPos="40.44" from="np4_nt4" id="random203" to="nt14_nt15" type="griddistrandom"/>
    <trip arrivalPos="116.24" depart="1204" departPos="109.97" from="nt14_nt13" id="random204" to="nt6_nt7" type="griddistrandom"/>
    <trip arrivalPos="17.88" depart="1205" departPos="20.02" from="nt11_nt12" id="random205" to="nt14_np11" type="griddistrandom"/>
    <trip arrivalPos="147.39" depart="1219" departPos="61.91" from="nt11_nt12" id="random206" to="nt10_nt9" type="griddistrandom"/>
    <trip arrivalPos="136.93" depart="1220" departPos="114.99" from="nt8_nt7" id="random207" to="nt6_nt2" type="griddistrandom"/>
    <trip arrivalPos="11.26" depart="1220" departPos="15.88" from="nt2_nt3" id="random208" to="nt3_nt2" type="griddistrandom"/>
    <trip arrivalPos="4.88" depart="1226" departPos="63.58" from="np12_nt13" id="random209" to="nt15_np10" type="griddistrandom"/>
    <trip arrivalPos="54.02" depart="1226" departPos="28.55" from="np2_nt2" id="random210" to="nt8_nt4" type="griddistrandom"/>
    <trip arrivalPos="103.80" depart="1228" departPos="125.76" from="nt2_nt3" id="random211" to="nt11_nt10" type="griddistrandom"/>
    <trip arrivalPos="56.40" depart="1229" departPos="17.17" from="nt10_nt6" id="random212" to="nt16_np8" type="griddistrandom"/>
    <trip arrivalPos="1.97" depart="1232" departPos="49.48" from="np8_nt16" id="random213" to="nt3_nt4" type="griddistrandom"/>
    <trip arrivalPos="114.93" depart="1241" departPos="163.32" from="nt12_nt11" id="random214" to="nt6_nt5" type="griddistrandom"/>
    <trip arrivalPos="30.79" depart="1245" departPos="145.31" from="nt11_nt12" id="random215" to="nt9_np14" type="griddistrandom"/>
    <trip arrivalPos="44.64" depart="1249" departPos="19.06" from="nt11_nt12" id="random216" to="nt13_np12" type="griddistrandom"/>
    <trip arrivalPos="106.39" depart="1250" departPos="13.13" from="np14_nt9" id="random217" to="nt6_nt5" type="griddistrandom"/>
    <trip arrivalPos="54.35" depart="1253" departPos="78.14" from="nt2_nt3" id="random218" to="nt14_np11" type="griddistrandom"/>
    <trip arrivalPos="10.84" depart="1270" departPos="142.83" from="nt13_nt9" id="random219" to="nt13_nt9" type="griddistrandom"/>
    <trip arrivalPos="140.01" depart="1271" departPos="178.13" from="nt10_nt9" id="random220" to="nt16_nt15" type="griddistrandom"/>
    <trip arrivalPos="11.06" depart="1276" departPos="143.93" from="nt10_nt9" id="random221" to="nt8_np6" type="griddistrandom"/>
    <trip arrivalPos="1.45" depart="1279" departPos="68.45" from="nt10_nt9" id="random222" to="nt15_nt11" type="griddistrandom"/>
    <trip arrivalPos="90.87" depart="1280" departPos="10.64" from="nt1_nt2" id="random223" to="nt4_nt8" type="griddistrandom"/>
    <trip arrivalPos="36.27" depart="1291" departPos="78.33" from="nt6_nt7" id="random224" to="nt7_nt6" type="griddistrandom"/>
    <trip arrivalPos="61.21" depart="1293" departPos="58.89" from="np6_nt8" id="random225" to="nt8_nt4" type="griddistrandom"/>
    <trip arrivalPos="40.66" depart="1299" departPos="182.24" from="nt3_nt2" id="random226" to="nt5_np15" type="griddistrandom"/>
    <trip arrivalPos="114.35" depart="1304" departPos="178.74" from="nt11_nt12" id="random227" to="nt3_nt2" type="griddistrandom"/>
    <trip arrivalPos="141.42" depart="1306" departPos="81.41" from="nt12_nt8" id="random228" to="nt12_nt16" type="griddistrandom"/>
    <trip arrivalPos="41.39" depart="1314" departPos="0.28" from="np12_nt13" id="random229" to="nt13_nt14" type="griddistrandom"/>
    <trip arrivalPos="131.64" depart="1315" departPos="17.93" from="np8_nt16" id="random230" to="nt3_nt7" type="griddistrandom"/>
    <trip arrivalPos="36.79" depart="1325" departPos="137.36" from="nt8_nt7" id="random231" to="nt15_nt11" type="griddistrandom"/>