<routes>
    <trip arrivalPos="40.36" depart="32400" departPos="14.15" from="nt6_nt10" id="evening0_54000" to="np4_nt4" type="griddist1"/>
    <trip arrivalPos="43.15" depart="32402" departPos="52.86" from="nt10_nt11" id="evening1_54000" to="np2_nt2" type="griddist1"/>
    <trip arrivalPos="0.13" depart="32404" departPos="162.01" from="nt7_nt6" id="evening2_54000" to="np11_nt14" type="griddist1"/>
    <trip arrivalPos="65.62" depart="32404" departPos="139.00" from="nt11_nt7" id="evening3_54000" to="nt16_np9" type="griddist1"/>
    <trip arrivalPos="46.86" depart="32406" departPos="10.12" from="nt6_nt10" id="evening4_54000" to="np10_nt15" type="griddist1"/>
    <trip arrivalPos="23.46" depart="32412" departPos="102.09" from="nt11_nt7" id="evening5_54000" to="nt16_np9" type="griddist1"/>
    <trip arrivalPos="49.09" depart="32412" departPos="21.29" from="nt7_nt6" id="evening6_54000" to="np13_nt13" type="griddist1"/>
    <trip arrivalPos="46.68" depart="32413" departPos="60.04" from="nt6_nt10" id="evening7_54000" to="np1_nt1" type="griddist1"/>
    <trip arrivalPos="17.03" depart="32415" departPos="71.71" from="nt10_nt11" id="evening8_54000" to="nt13_np13" type="griddist1"/>
    <trip arrivalPos="62.29" depart="32416" departPos="152.18" from="nt7_nt6" id="evening9_54000" to="np2_nt2" type="griddist1"/>
    <trip arrivalPos="11.88" depart="32417" departPos="24.93" from="nt11_nt7" id="evening10_54000" to="np6_nt8" type="griddist1"/>
    <trip arrivalPos="13.81" depart="32421" departPos="174.97" from="nt7_nt6" id="evening11_54000" to="nt12_np7" type="griddist1"/>
    <trip arrivalPos="31.54" depart="32426" departPos="66.77" from="nt10_nt11" id="evening12_54000" to="np9_nt16" type="griddist1"/>
    <trip arrivalPos="62.57" depart="32428" departPos="119.78" from="nt10_nt11" id="evening13_54000" to="np8_nt16" type="griddist1"/>
    <trip arrivalPos="37.22" depart="32431" departPos="133.49" from="nt10_nt11" id="evening14_54000" to="nt2_np2" type="griddist1"/>
    <trip arrivalPos="51.79" depart="32431" departPos="119.82" from="nt10_nt11" id="evening15_54000" to="np15_nt5" type="griddist1"/>
    <trip arrivalPos="26.94" depart="32431" departPos="134.90" from="nt6_nt10" id="evening16_54000" to="nt1_np16" type="griddist1"/>
    <trip arrivalPos="49.64" depart="32436" departPos="81.87" from="nt6_nt10" id="evening17_54000" to="nt15_np10" type="griddist1"/>
    <trip arrivalPos="24.43" depart="32445" departPos="41.88" from="nt10_nt11" id="evening18_54000" to="nt13_np12" type="griddist1"/>
    <trip arrivalPos="23.55" depart="32446" departPos="31.53" from="nt11_nt7" id="evening19_54000" to="np13_nt13" type="griddist1"/>
    <trip arrivalPos="23.51" depart="32448" departPos="76.52" from="nt10_nt11" id="evening20_54000" to="nt2_np2" type="griddist1"/>
    <trip arrivalPos="54.92" depart="32452" departPos="98.71" from="nt11_nt7" id="evening21_54000" to="nt4_np5" type="griddist1"/>
    <trip arrivalPos="22.04" depart="32453" departPos="147.94" from="nt7_nt6" id="evening22_54000" to="np14_nt9" type="griddist1"/>
    <trip arrivalPos="14.00" depart="32453" departPos="76.29" from="nt6_nt10" id="evening23_54000" to="np14_nt9" type="griddist1"/>
    <trip arrivalPos="24.08" depart="32457" departPos="2.44" from="nt10_nt11" id="evening24_54000" to="np8_nt16" type="griddist1"/>
    <trip arrivalPos="12.51" depart="32457" departPos="48.36" from="nt6_nt10" id="evening25_54000" to="np16_nt1" type="griddist1"/>
    <trip arrivalPos="0.50" depart="32458" departPos="55.33" from="nt11_nt7" id="evening26_54000" to="np5_nt4" type="griddist1"/>
    <trip arrivalPos="5.27" depart="32461" departPos="94.84" from="nt11_nt7" id="evening27_54000" to="np13_nt13" type="griddist1"/>
    <trip arrivalPos="38.40" depart="32461" departPos="33.78" from="nt11_nt7" id="evening28_54000" to="np14_nt9" type="griddist1"/>
    <trip arrivalPos="18.34" depart="32466" departPos="30.42" from="nt10_nt11" id="evening29_54000" to="np4_nt4" type="griddist1"/>
    <trip arrivalPos="25.73" depart="32471" departPos="157.77" from="nt6_nt10" id="evening30_54000" to="nt1_np1" type="griddist1"/>
    <trip arrivalPos="60.67" depart="32472" departPos="84.45" from="nt10_nt11" id="evening31_54000" to="np12_nt13" type="griddist1"/>
    <trip arrivalPos="23.08" depart="32474" departPos="68.03" from="nt10_nt11" id="evening32_54000" to="nt2_np2" type="griddist1"/>
    <trip arrivalPos="53.95" depart="32475" departPos="177.12" from="nt11_nt7" id="evening33_54000" to="np4_nt4" type="griddist1"/>
    <trip arrivalPos="42.51" depart="32476" departPos="39.81" from="nt6_nt10" id="evening34_54000" to="np6_nt8" type="griddist1"/>
    <trip arrivalPos="51.06" depart="32476" departPos="57.42" from="nt10_nt11" id="evening35_54000" to="np9_nt16" type="griddist1"/>
    <trip arrivalPos="35.81" depart="32476" departPos="17.07" from="nt6_nt10" id="evening36_54000" to="nt16_np8" type="griddist1"/>
    <trip arrivalPos="45.04" depart="32479" departPos="5.50" from="nt10_nt11" id="evening37_54000" to="nt4_np4" type="griddist1"/>
    <trip arrivalPos="1.91" depart="32481" departPos="13.31" from="nt10_nt11" id="evening38_54000" to="nt1_np16" type="griddist1"/>
    <trip arrivalPos="36.77" depart="32484" departPos="35.96" from="nt10_nt11" id="evening39_54000" to="nt8_np6" type="griddist1"/>
    <trip arrivalPos="38.03" depart="32484" departPos="131.22" from="nt7_nt6" id="evening40_54000" to="np2_nt2" type="griddist1"/>
    <trip arrivalPos="63.69" depart="32485" departPos="70.57" from="nt11_nt7" id="evening41_54000" to="np1_nt1" type="griddist1"/>
    <trip arrivalPos="8.55" depart="32485" departPos="54.23" from="nt10_nt11" id="evening42_54000" to="nt15_np10" type="griddist1"/>
    <trip arrivalPos="19.78" depart="32485" departPos="33.18" from="nt10_nt11" id="evening43_54000" to="np14_nt9" type="griddist1"/>
    <trip arrivalPos="32.53" depart="32487" departPos="54.35" from="nt6_nt10" id="evening44_54000" to="np4_nt4" type="griddist1"/>
    <trip arrivalPos="1.20" depart="32490" departPos="77.60" from="nt11_nt7" id="evening45_54000" to="nt8_np6" type="griddist1"/>
    <trip arrivalPos="44.30" depart="32491" departPos="59.82" from="nt10_nt11" id="evening46_54000" to="nt4_np5" type="griddist1"/>
    <trip arrivalPos="25.93" depart="32494" departPos="177.29" from="nt7_nt6" id="evening47_54000" to="np14_nt9" type="griddist1"/>
    <trip arrivalPos="21.87" depart="32495" departPos="149.56" from="nt7_nt6" id="evening48_54000" to="np2_nt2" type="griddist1"/>
    <trip arrivalPos="35.57" depart="32498" departPos="176.33" from="nt11_nt7" id="evening49_54000" to="nt13_np13" type="griddist1"/>
    <trip arrivalPos="44.54" depart="32501" departPos="65.30" from="nt10_nt11" id="evening50_54000" to="np8_nt16" type="griddist1"/>
    <trip arrivalPos="63.97" depart="32503" departPos="139.80" from="nt10_nt11" id="evening51_54000" to="nt1_np16" type="griddist1"/>
    <trip arrivalPos="65.97" depart="32504" departPos="23.98" from="nt7_nt6" id="evening52_54000" to="np14_nt9" type="griddist1"/>
    <trip arrivalPos="5.84" depart="32505" departPos="17.42" from="nt6_nt10" id="evening53_54000" to="np7_nt12" type="griddist1"/>
    <trip arrivalPos="44.52" depart="32506" departPos="10.84" from="nt10_nt11" id="evening54_54000" to="np10_nt15" type="griddist1"/>
    <trip arrivalPos="5.94" depart="32507" departPos="152.53" from="nt6_nt10" id="evening55_54000" to="nt2_np2" type="griddist1"/>
    <trip arrivalPos="51.80" depart="32512" departPos="112.16" from="nt11_nt7" id="evening56_54000" to="nt13_np12" type="griddist1"/>
    <trip arrivalPos="61.16" depart="32512" departPos="114.02" from="nt10_nt11" id="evening57_54000" to="nt13_np13" type="griddist1"/>
    <trip arrivalPos="57.44" depart="32513" departPos="141.32" from="nt6_nt10" id="evening58_54000" to="nt1_np1" type="griddist1"/>
    <trip arrivalPos="19.50" depart="32514" departPos="20.48" from="nt11_nt7" id="evening59_54000" to="np4_nt4" type="griddist1"/>
    <trip arrivalPos="71.01" depart="32514" departPos="3.35" from="nt10_nt11" id="evening60_54000" to="np5_nt4" type="griddist1"/>
    <trip arrivalPos="58.56" depart="32517" departPos="95.11" from="nt11_nt7" id="evening61_54000" to="nt8_np6" type="griddist1"/>
    <trip arrivalPos="2.78" depart="32526" departPos="35.39" from="nt7_nt6" id="evening62_54000" to="np16_nt1" type="griddist1"/>
    <trip arrivalPos="57.59" depart="32527" departPos="153.99" from="nt6_nt10" id="evening63_54000" to="np8_nt16" type="griddist1"/>
    <trip arrivalPos="33.43" depart="32528" departPos="70.82" from="nt11_nt7" id="evening64_54000" to="np13_nt13" type="griddist1"/>
    <trip arrivalPos="2.40" depart="32529" departPos="52.16" from="nt11_nt7" id="evening65_54000" to="np14_nt9" type="griddist1"/>
    <trip arrivalPos="24.42" depart="32529" departPos="163.80" from="nt6_nt10" id="evening66_54000" to="np7_nt12" type="griddist1"/>
    <trip arrivalPos="61.92" depart="32533" departPos="61.24" from="nt7_nt6" id="evening67_54000" to="nt5_np15" type="griddist1"/>
    <trip arrivalPos="35.48" depart="32535" departPos="81.49" from="nt7_nt6" id="evening68_54000" to="nt13_np12" type="griddist1"/>
    <trip arrivalPos="16.18" depart="32539" departPos="26.11" from="nt6_nt10" id="evening69_54000" to="np3_nt3" type="griddist1"/>
    <trip arrivalPos="37.18" depart="32542" departPos="14.50" from="nt6_nt10" id="evening70_54000" to="nt16_np9" type="griddist1"/>
    <trip arrivalPos="35.18" depart="32545" departPos="7.55" from="nt11_nt7" id="evening71_54000" to="np8_nt16" type="griddist1"/>
    <trip arrivalPos="74.62" depart="32546" departPos="61.49" from="nt11_nt7" id="evening72_54000" to="nt15_np10" type="griddist1"/>
    <trip arrivalPos="19.14" depart="32547" departPos="134.85" from="nt10_nt11" id="evening73_54000" to="np4_nt4" type="griddist1"/>
    <trip arrivalPos="45.75" depart="32547" departPos="123.83" from="nt10_nt11" id="evening74_54000" to="nt13_np13" type="griddist1"/>
    <trip arrivalPos="29.80" depart="32548" departPos="4.80" from="nt7_nt6" id="evening75_54000" to="np3_nt3" type="griddist1"/>
    <trip arrivalPos="62.61" depart="32550" departPos="167.69" from="nt6_nt10" id="evening76_54000" to="np16_nt1" type="griddist1"/>
    <trip arrivalPos="68.34" depart="32550" departPos="17.57" from="nt7_nt6" id="evening77_54000" to="nt7_nt6" type="griddist1"/>
    <trip arrivalPos="30.84" depart="32552" departPos="179.00" from="nt6_nt10" id="evening78_54000" to="np14_nt9" type="griddist1"/>
    <trip arrivalPos="46.90" depart="32557" departPos="109.85" from="nt6_nt10" id="evening79_54000" to="nt4_np4" type="griddist1"/>
    <trip arrivalPos="62.54" depart="32558" departPos="54.10" from="nt7_nt6" id="evening80_54000" to="nt1_np16" type="griddist1"/>
    <trip arrivalPos="22.77" depart="32559" departPos="161.93" from="nt6_nt10" id="evening81_54000" to="np14_nt9" type="griddist1"/>
    <trip arrivalPos="16.52" depart="32559" departPos="62.21" from="nt6_nt10" id="evening82_54000" to="np1_nt1" type="griddist1"/>
    <trip arrivalPos="51.67" depart="32567" departPos="45.32" from="nt11_nt7" id="evening83_54000" to="nt15_np10" type="griddist1"/>
    <trip arrivalPos="31.66" depart="32568" departPos="27.73" from="nt6_nt10" id="evening84_54000" to="np4_nt4" type="griddist1"/>
    <trip arrivalPos="48.60" depart="32570" departPos="146.28" from="nt11_nt7" id="evening85_54000" to="np1_nt1" type="griddist1"/>
    <trip arrivalPos="58.29" depart="32572" departPos="95.62" from="nt10_nt11" id="evening86_54000" to="np2_nt2" type="griddist1"/>
    <trip arrivalPos="4.66" depart="32573" departPos="70.89" from="nt10_nt11" id="evening87_54000" to="np13_nt13" type="griddist1"/>
    <trip arrivalPos="37.37" depart="32573" departPos="68.65" from="nt11_nt7" id="evening88_54000" to="nt3_np3" type="griddist1"/>
    <trip arrivalPos="30.09" depart="32576" departPos="68.64" from="nt11_nt7" id="evening89_54000" to="nt15_np10" type="griddist1"/>
    <trip arrivalPos="68.74" depart="32579" departPos="114.85" from="nt10_nt11" id="evening90_54000" to="np7_nt12" type="griddist1"/>
    <trip arrivalPos="55.19" depart="32585" departPos="20.45" from="nt6_nt10" id="evening91_54000" to="np5_nt4" type="griddist1"/>
    <trip arrivalPos="26.43" depart="32589" departPos="121.55" from="nt7_nt6" id="evening92_54000" to="nt15_np10" type="griddist1"/>
    <trip arrivalPos="22.08" depart="32589" departPos="0.24" from="nt7_nt6" id="evening93_54000" to="np7_nt12" type="griddist1"/>
    <trip arrivalPos="34.88" depart="32591" departPos="66.03" from="nt10_nt11" id="evening94_54000" to="nt13_np12" type="griddist1"/>
    <trip arrivalPos="9.02" depart="32591" departPos="2.63" from="nt11_nt7" id="evening95_54000" to="nt1_np1" type="griddist1"/>
    <trip arrivalPos="43.82" depart="32591" departPos="65.20" from="nt10_nt11" id="evening96_54000" to="nt2_np2" type="griddist1"/>
    <trip arrivalPos="33.46" depart="32595" departPos="141.26" from="nt11_nt7" id="evening97_54000" to="nt16_np9" type="griddist1"/>
    <trip arrivalPos="6.01" depart="32601" departPos="158.44" from="nt6_nt10" id="evening98_54000" to="np14_nt9" type="griddist1"/>
    <trip arrivalPos="7.31" depart="32601" departPos="101.86" from="nt7_nt6" id="evening99_54000" to="nt9_np14" type="griddist1"/>
    <trip arrivalPos="45.88" depart="32604" departPos="102.31" from="nt10_nt11" id="evening100_54000" to="np3_nt3" type="griddist1"/>
    <trip arrivalPos="44.14" depart="32608" departPos="17.20" from="nt7_nt6" id="evening101_54000" to="np10_nt15" type="griddist1"/>
    <trip arrivalPos="44.84" depart="32611" departPos="34.00" from="nt7_nt6" id="evening102_54000" to="nt9_np14" type="griddist1"/>
    <trip arrivalPos="26.01" depart="32612" departPos="69.41" from="nt10_nt11" id="evening103_54000" to="nt3_np3" type="griddist1"/>
    <trip arrivalPos="68.16" depart="32612" departPos="130.69" from="nt6_nt10" id="evening104_54000" to="np7_nt12" type="griddist1"/>
    <trip arrivalPos="8.22" depart="32614" departPos="83.39" from="nt6_nt10" id="evening105_54000" to="nt1_np1" type="griddist1"/>
    <trip arrivalPos="23.83" depart="32615" departPos="17.34" from="nt11_nt7" id="evening106_54000" to="np16_nt1" type="griddist1"/>
    <trip arrivalPos="45.11" depart="32616" departPos="131.39" from="nt10_nt11" id="evening107_54000" to="np1_nt1" type="griddist1"/>
    <trip arrivalPos="1.22" depart="32622" departPos="58.21" from="nt10_nt11" id="evening108_54000" to="np11_nt14" type="griddist1"/>
    <trip arrivalPos="42.96" depart="32625" departPos="167.36" from="nt10_nt11" id="evening109_54000" to="np5_nt4" type="griddist1"/>
    <trip arrivalPos="9.56" depart="32628" departPos="98.22" from="nt7_nt6" id="evening110_54000" to="nt13_np13" type="griddist1"/>
    <trip arrivalPos="6.26" depart="32631" departPos="175.52" from="nt10_nt11" id="evening111_54000" to="nt13_np13" type="griddist1"/>
    <trip arrivalPos="32.77" depart="32635" departPos="3.84" from="nt7_nt6" id="evening112_54000" to="np14_nt9" type="griddist1"/>
    <trip arrivalPos="58.59" depart="32635" departPos="115.10" from="nt7_nt6" id="evening113_54000" to="nt15_np10" type="griddist1"/>
    <trip arrivalPos="8.36" depart="32636" departPos="50.80" from="nt11_nt7" id="evening114_54000" to="np4_nt4" type="griddist1"/>
    <trip arrivalPos="36.72" depart="32640" departPos="105.45" from="nt6_nt10" id="evening115_54000" to="np12_nt13" type="griddist1"/>
    <trip arrivalPos="73.72" depart="32642" departPos="171.77" from="nt10_nt11" id="evening116_54000" to="nt15_np10" type="griddist1"/>
    <trip arrivalPos="15.89" depart="32643" departPos="156.49" from="nt11_nt7" id="evening117_54000" to="np4_nt4" type="griddist1"/>
    <trip arrivalPos="5.76" depart="32643" departPos="69.00" from="nt10_nt11" id="evening118_54000" to="np14_nt9" type="griddist1"/>
    <trip arrivalPos="69.13" depart="32645" departPos="91.99" from="nt6_nt10" id="evening119_54000" to="nt14_np11" type="griddist1"/>
    <trip arrivalPos="72.61" depart="32650" departPos="67.51" from="nt11_nt7" id="evening120_54000" to="np10_nt15" type="griddist1"/>
    <trip arrivalPos="55.26" depart="32651" departPos="67.97" from="nt11_nt7" id="evening121_54000" to="np16_nt1" type="griddist1"/>
    <trip arrivalPos="15.27" depart="32652" departPos="13.01" from="nt11_nt7" id="evening122_54000" to="nt16_np8" type="griddist1"/>
    <trip arrivalPos="33.79" depart="32655" departPos="24.86" from="nt10_nt11" id="evening123_54000" to="nt15_np10" type="griddist1"/>
    <trip arrivalPos="25.41" depart="32656" departPos="131.20" from="nt11_nt7" id="evening124_54000" to="nt1_np1" type="griddist1"/>
    <trip arrivalPos="64.54" depart="32657" departPos="48.80" from="nt7_nt6" id="evening125_54000" to="np6_nt8" type="griddist1"/>
    <trip arrivalPos="44.31" depart="32659" departPos="163.88" from="nt6_nt10" id="evening126_54000" to="nt8_np6" type="griddist1"/>
    <trip arrivalPos="63.60" depart="32660" departPos="146.52" from="nt11_nt7" id="evening127_54000" to="nt16_np9" type="griddist1"/>
    <trip arrivalPos="65.48" depart="32665" departPos="51.32" from="nt11_nt7" id="evening128_54000" to="np15_nt5" type="griddist1"/>
    <trip arrivalPos="11.14" depart="32666" departPos="41.18" from="nt11_nt7" id="evening129_54000" to="np1_nt1" type="griddist1"/>
    <trip arrivalPos="33.35" depart="32669" departPos="84.88" from="nt7_nt6" id="evening130_54000" to="np13_nt13" type="griddist1"/>
    <trip arrivalPos="65.25" depart="32674" departPos="100.02" from="nt11_nt7" id="evening131_54000" to="nt16_np9" type="griddist1"/>
    <trip arrivalPos="44.42" depart="32676" departPos="73.01" from="nt10_nt11" id="evening132_54000" to="np12_nt13" type="griddist1"/>
    <trip arrivalPos="30.54" depart="32677" departPos="52.55" from="nt6_nt10" id="evening133_54000" to="np6_nt8" type="griddist1"/>
    <trip arrivalPos="17.94" depart="32677" departPos="29.14" from="nt6_nt10" id="evening134_54000" to="nt13_np13" type="griddist1"/>
    <trip arrivalPos="73.34" depart="32678" departPos="57.70" from="nt6_nt10" id="evening135_54000" to="np11_nt14" type="griddist1"/>
    <trip arrivalPos="28.90" depart="32679" departPos="34.73" from="nt6_nt10" id="evening136_54000" to="nt2_np2" type="griddist1"/>
    <trip arrivalPos="61.66" depart="32679" departPos="62.78" from="nt6_nt10" id="evening137_54000" to="nt8_np6" type="griddist1"/>
    <trip arrivalPos="63.55" depart="32684" departPos="44.88" from="nt10_nt11" id="evening138_54000" to="nt13_np12" type="griddist1"/>
    <trip arrivalPos="4.81" depart="32687" departPos="111.39" from="nt7_nt6" id="evening139_54000" to="nt13_np12" type="griddist1"/>
    <trip arrivalPos="62.83" depart="32688" departPos="38.51" from="nt6_nt10" id="evening140_54000" to="nt2_np2" type="griddist1"/>
    <trip arrivalPos="1.66" depart="32693" departPos="125.38" from="nt6_nt10" id="evening141_54000" to="np3_nt3" type="griddist1"/>
    <trip arrivalPos="3.31" depart="32696" departPos="41.23" from="nt6_nt10" id="evening142_54000" to="nt13_np13" type="griddist1"/>
    <trip arrivalPos="57.98" depart="32699" departPos="19.28" from="nt7_nt6" id="evening143_54000" to="nt1_np1" type="griddist1"/>
    <trip arrivalPos="48.95" depart="32702" departPos="91.11" from="nt7_nt6" id="evening144_54000" to="np13_nt13" type="griddist1"/>
    <trip arrivalPos="56.77" depart="32703" departPos="40.51" from="nt10_nt11" id="evening145_54000" to="np7_nt12" type="griddist1"/>
    <trip arrivalPos="0.11" depart="32705" departPos="181.39" from="nt10_nt11" id="evening146_54000" to="np10_nt15" type="griddist1"/>
    <trip arrivalPos="9.63" depart="32705" departPos="162.80" from="nt11_nt7" id="evening147_54000" to="np6_nt8" type="griddist1"/>
    <trip arrivalPos="30.75" depart="32705" departPos="72.40" from="nt10_nt11" id="evening148_54000" to="np10_nt15" type="griddist1"/>
    <trip arrivalPos="8.80" depart="32711" departPos="146.70" from="nt10_nt11" id="evening149_54000" to="nt3_np3" type="griddist1"/>
    <trip arrivalPos="3.44" depart="32714" departPos="41.98" from="nt6_nt10" id="evening150_54000" to="np14_nt9" type="griddist1"/>
    <trip arrivalPos="13.66" depart="32714" departPos="77.91" from="nt11_nt7" id="evening151_54000" to="np11_nt14" type="griddist1"/>
    <trip arrivalPos="36.21" depart="32714" departPos="108.20" from="nt11_nt7" id="evening152_54000" to="nt15_np10" type="griddist1"/>
    <trip arrivalPos="4.17" depart="32716" departPos="70.07" from="nt11_nt7" id="evening153_54000" to="nt16_np9" type="griddist1"/>
    <trip arrivalPos="24.54" depart="32716" departPos="126.56" from="nt7_nt6" id="evening154_54000" to="np7_nt12" type="griddist1"/>
    <trip arrivalPos="10.78" depart="32717" departPos="128.06" from="nt6_nt10" id="evening155_54000" to="nt1_np16" type="griddist1"/>
    <trip arrivalPos="55.70" depart="32717" departPos="135.91" from="nt10_nt11" id="evening156_54000" to="np15_nt5" type="griddist1"/>
    <trip arrivalPos="18.08" depart="32724" departPos="67.52" from="nt7_nt6" id="evening157_54000" to="nt14_np11" type="griddist1"/>
    <trip arrivalPos="61.74" depart="32726" departPos="12.90" from="nt11_nt7" id="evening158_54000" to="nt2_np2" type="griddist1"/>
    <trip arrivalPos="33.15" depart="32730" departPos="122.49" from="nt6_nt10" id="evening159_54000" to="np16_nt1" type="griddist1"/>
    <trip arrivalPos="47.22" depart="32730" departPos="4.59" from="nt7_nt6" id="evening160_54000" to="np11_nt14" type="griddist1"/>
    <trip arrivalPos="55.72" depart="32734" departPos="122.99" from="nt7_nt6" id="evening161_54000" to="np8_nt16" type="griddist1"/>
    <trip arrivalPos="72.91" depart="32738" departPos="52.09" from="nt6_nt10" id="evening162_54000" to="np5_nt4" type="griddist1"/>
    <trip arrivalPos="19.69" depart="32740" departPos="130.55" from="nt10_nt11" id="evening163_54000" to="nt14_np11" type="griddist1"/>
    <trip arrivalPos="55.93" depart="32741" departPos="159.29" from="nt7_nt6" id="evening164_54000" to="nt8_np6" type="griddist1"/>
    <trip arrivalPos="44.65" depart="32742" departPos="11.85" from="nt7_nt6" id="evening165_54000" to="nt4_np5" type="griddist1"/>
    <trip arrivalPos="9.49" depart="32742" departPos="24.86" from="nt7_nt6" id="evening166_54000" to="nt4_np4" type="griddist1"/>
    <trip arrivalPos="51.08" depart="32743" departPos="66.66" from="nt7_nt6" id="evening167_54000" to="np4_nt4" type="griddist1"/>
    <trip arrivalPos="25.45" depart="32744" departPos="163.91" from="nt10_nt11" id="evening168_54000" to="np8_nt16" type="griddist1"/>
    <trip arrivalPos="52.78" depart="32746" departPos="156.42" from="nt7_nt6" id="evening169_54000" to="nt1_np16" type="griddist1"/>
    <trip arrivalPos="38.75" depart="32747" departPos="151.43" from="nt10_nt11" id="evening170_54000" to="nt2_np2" type="griddist1"/>
    <trip arrivalPos="2.07" depart="32747" departPos="107.85" from="nt11_nt7" id="evening171_54000" to="nt4_np4" type="griddist1"/>
    <trip arrivalPos="37.36" depart="32747" departPos="154.28" from="nt6_nt10" id="evening172_54000" to="np12_nt13" type="griddist1"/>
    <trip arrivalPos="12.06" depart="32747" departPos="49.38" from="nt11_nt7" id="evening173_54000" to="np14_nt9" type="griddist1"/>
    <trip arrivalPos="28.41" depart="32750" departPos="83.40" from="nt7_nt6" id="evening174_54000" to="np6_nt8" type="griddist1"/>
    <trip arrivalPos="58.20" depart="32753" departPos="57.48" from="nt11_nt7" id="evening175_54000" to="nt5_np15" type="griddist1"/>
    <trip arrivalPos="37.85" depart="32754" departPos="10.74" from="nt11_nt7" id="evening176_54000" to="np2_nt2" type="griddist1"/>
    <trip arrivalPos="24.23" depart="32759" departPos="49.38" from="nt11_nt7" id="evening177_54000" to="np1_nt1" type="griddist1"/>
    <trip arrivalPos="36.14" depart="32761" departPos="126.48" from="nt7_nt6" id="evening178_54000" to="np6_nt8" type="griddist1"/>
    <trip arrivalPos="3.16" depart="32764" departPos="139.31" from="nt7_nt6" id="evening179_54000" to="np2_nt2" type="griddist1"/>
    <trip arrivalPos="6.86" depart="32766" departPos="22.82" from="nt6_nt10" id="evening180_54000" to="nt4_np5" type="griddist1"/>
    <trip arrivalPos="73.92" depart="32768" departPos="116.75" from="nt11_nt7" id="evening181_54000" to="nt8_np6" type="griddist1"/>
    <trip arrivalPos="35.83" depart="32770" departPos="130.92" from="nt11_nt7" id="evening182_54000" to="nt16_np8" type="griddist1"/>
    <trip arrivalPos="29.89" depart="32770" departPos="169.22" from="nt7_nt6" id="evening183_54000" to="np13_nt13" type="griddist1"/>
    <trip arrivalPos="71.10" depart="32771" departPos="149.94" from="nt10_nt11" id="evening184_54000" to="nt12_np7" type="griddist1"/>
    <trip arrivalPos="2.58" depart="32773" departPos="24.17" from="nt11_nt7" id="evening185_54000" to="nt16_np8" type="griddist1"/>
    <trip arrivalPos="60.48" depart="32773" departPos="145.53" from="nt7_nt6" id="evening186_54000" to="nt14_np11" type="griddist1"/>
    <trip arrivalPos="25.14" depart="32776" departPos="168.44" from="nt11_nt7" id="evening187_54000" to="nt14_np11" type="griddist1"/>
    <trip arrivalPos="53.23" depart="32776" departPos="119.52" from="nt11_nt7" id="evening188_54000" to="nt16_np8" type="griddist1"/>
    <trip arrivalPos="36.29" depart="32777" departPos="52.55" from="nt11_nt7" id="evening189_54000" to="nt14_np11" type="griddist1"/>
    <trip arrivalPos="3.14" depart="32779" departPos="55.71" from="nt10_nt11" id="evening190_54000" to="np4_nt4" type="griddist1"/>
    <trip arrivalPos="17.43" depart="32780" departPos="167.95" from="nt7_nt6" id="evening191_54000" to="np12_nt13" type="griddist1"/>
    <trip arrivalPos="14.41" depart="32784" departPos="66.26" from="nt7_nt6" id="evening192_54000" to="nt1_np16" type="griddist1"/>
    <trip arrivalPos="54.24" depart="32785" departPos="122.35" from="nt7_nt6" id="evening193_54000" to="nt5_np15" type="griddist1"/>
    <trip arrivalPos="55.27" depart="32786" departPos="16.08" from="nt6_nt10" id="evening194_54000" to="np12_nt13" type="griddist1"/>
    <trip arrivalPos="50.88" depart="32787" departPos="10.02" from="nt7_nt6" id="evening195_54000" to="np2_nt2" type="griddist1"/>
    <trip arrivalPos="21.61" depart="32789" departPos="153.55" from="nt10_nt11" id="evening196_54000" to="np1_nt1" type="griddist1"/>
    <trip arrivalPos="54.30" depart="32792" departPos="181.46" from="nt10_nt11" id="evening197_54000" to="np1_nt1" type="griddist1"/>
    <trip arrivalPos="73.70" depart="32793" departPos="12.50" from="nt7_nt6" id="evening198_54000" to="np10_nt15" type="griddist1"/>
    <trip arrivalPos="63.57" depart="32795" departPos="143.47" from="nt6_nt10" id="evening199_54000" to="nt5_np15" type="griddist1"/>
    <trip arrivalPos="62.11" depart="32798" departPos="138.11" from="nt11_nt7" id="evening200_54000" to="nt14_np11" type="griddist1"/>
    <trip arrivalPos="60.25" depart="32798" departPos="119.11" from="nt10_nt11" id="evening201_54000" to="nt1_np1" type="griddist1"/>
    <trip arrivalPos="57.60" depart="32799" departPos="19.93" from="nt7_nt6" id="evening202_54000" to="np15_nt5" type="griddist1"/>
    <trip arrivalPos="72.95" depart="32800" departPos="65.97" from="nt10_nt11" id="evening203_54000" to="np12_nt13" type="griddist1"/>
    <trip arrivalPos="5.76" depart="32804" departPos="7.48" from="nt7_nt6" id="evening204_54000" to="np8_nt16" type="griddist1"/>
    <trip arrivalPos="29.48" depart="32804" departPos="130.37" from="nt6_nt10" id="evening205_54000" to="nt1_np1" type="griddist1"/>
    <trip arrivalPos="31.52" depart="32807" departPos="35.94" from="nt11_nt7" id="evening206_54000" to="nt3_np3" type="griddist1"/>
    <trip arrivalPos="44.92" depart="32809" departPos="116.89" from="nt10_nt11" id="evening207_54000" to="np11_nt14" type="griddist1"/>
    <trip arrivalPos="52.68" depart="32810" departPos="29.35" from="nt7_nt6" id="evening208_54000" to="nt14_np11" type="griddist1"/>
    <trip arrivalPos="2.91" depart="32810" departPos="55.88" from="nt10_nt11" id="evening209_54000" to="nt13_np13" type="griddist1"/>
    <trip arrivalPos="40.93" depart="32811" departPos="99.12" from="nt6_nt10" id="evening210_54000" to="nt4_np4" type="griddist1"/>
    <trip arrivalPos="29.81" depart="32812" departPos="145.50" from="nt6_nt10" id="evening211_54000" to="nt13_np12" type="griddist1"/>
    <trip arrivalPos="14.19" depart="32813" departPos="30.90" from="nt11_nt7" id="evening212_54000" to="nt3_np3" type="griddist1"/>
    <trip arrivalPos="49.12" depart="32814" departPos="55.48" from="nt10_nt11" id="evening213_54000" to="nt16_np9" type="griddist1"/>
    <trip arrivalPos="6.68" depart="32815" departPos="48.81" from="nt10_nt11" id="evening214_54000" to="np11_nt14" type="griddist1"/>
    <trip arrivalPos="29.31" depart="32816" departPos="24.33" from="nt6_nt10" id="evening215_54000" to="nt2_np2" type="griddist1"/>
    <trip arrivalPos="16.45" depart="32823" departPos="151.13" from="nt11_nt7" id="evening216_54000" to="np10_nt15" type="griddist1"/>
    <trip arrivalPos="74.52" depart="32836" departPos="91.29" from="nt11_nt7" id="evening217_54000" to="np10_nt15" type="griddist1"/>
    <trip arrivalPos="21.55" depart="32837" departPos="48.67" from="nt10_nt11" id="evening218_54000" to="nt13_np13" type="griddist1"/>
    <trip arrivalPos="52.83" depart="32837" departPos="104.86" from="nt6_nt10" id="evening219_54000" to="np13_nt13" type="griddist1"/>
    <trip arrivalPos="12.57" depart="32838" departPos="165.32" from="nt7_nt6" id="evening220_54000" to="nt16_np9" type="griddist1"/>
    <trip arrivalPos="55.04" depart="32839" departPos="130.82" from="nt6_nt10" id="evening221_54000" to="nt13_np13" type="griddist1"/>
    <trip arrivalPos="4.95" depart="32839" departPos="42.54" from="nt10_nt11" id="evening222_54000" to="nt15_np10" type="griddist1"/>
    <trip arrivalPos="64.29" depart="32842" departPos="120.98" from="nt6_nt10" id="evening223_54000" to="np3_nt3" type="griddist1"/>
    <trip arrivalPos="33.31" depart="32842" departPos="106.60" from="nt7_nt6" id="evening224_54000" to="nt12_np7" type="griddist1"/>
    <trip arrivalPos="50.81" depart="32849" departPos="147.66" from="nt11_nt7" id="evening225_54000" to="np4_nt4" type="griddist1"/>