<routes>
    <trip arrivalPos="24.13" depart="1" departPos="10.85" from="np10_nt15" id="morning0_21600" to="nt7_nt6" type="griddist1"/>
    <trip arrivalPos="4.78" depart="2" departPos="122.69" from="nt10_nt11" id="morning1_21600" to="nt10_nt11" type="griddist1"/>
    <trip arrivalPos="60.09" depart="4" departPos="17.84" from="np10_nt15" id="morning2_21600" to="nt7_nt6" type="griddist1"/>
    <trip arrivalPos="97.64" depart="6" departPos="55.63" from="np5_nt4" id="morning3_21600" to="nt10_nt11" type="griddist1"/>
    <trip arrivalPos="91.97" depart="8" departPos="139.42" from="nt5_nt1" id="morning4_21600" to="nt11_nt7" type="griddist1"/>
    <trip arrivalPos="7.77" depart="10" departPos="64.10" from="np16_nt1" id="morning5_21600" to="nt6_nt10" type="griddist1"/>
    <trip arrivalPos="85.01" depart="10" departPos="93.44" from="nt6_nt10" id="morning6_21600" to="nt7_nt6" type="griddist1"/>
    <trip arrivalPos="74.54" depart="13" departPos="88.90" from="nt9_nt10" id="morning7_21600" to="nt10_nt11" type="griddist1"/>
    <trip arrivalPos="13.17" depart="14" departPos="168.84" from="nt3_nt4" id="morning8_21600" to="nt11_nt7" type="griddist1"/>
    <trip arrivalPos="49.28" depart="22" departPos="4.45" from="np15_nt5" id="morning9_21600" to="nt6_nt10" type="griddist1"/>
    <trip arrivalPos="178.24" depart="24" departPos="60.35" from="nt2_nt3" id="morning10_21600" to="nt6_nt10" type="griddist1"/>
    <trip arrivalPos="17.77" depart="26" departPos="112.37" from="nt15_nt14" id="morning11_21600" to="nt11_nt7" type="griddist1"/>
    <trip arrivalPos="142.72" depart="29" departPos="116.64" from="nt3_nt7" id="morning12_21600" to="nt7_nt6" type="griddist1"/>
    <trip arrivalPos="42.41" depart="32" departPos="80.92" from="nt4_nt8" id="morning13_21600" to="nt10_nt11" type="griddist1"/>
    <trip arrivalPos="17.04" depart="33" departPos="77.21" from="nt11_nt12" id="morning14_21600" to="nt11_nt7" type="griddist1"/>
    <trip arrivalPos="27.35" depart="38" departPos="69.47" from="nt13_nt14" id="morning15_21600" to="nt6_nt10" type="griddist1"/>
    <trip arrivalPos="17.30" depart="38" departPos="149.05" from="nt8_nt4" id="morning16_21600" to="nt10_nt11" type="griddist1"/>
    <trip arrivalPos="99.70" depart="39" departPos="55.04" from="np16_nt1" id="morning17_21600" to="nt6_nt10" type="griddist1"/>
    <trip arrivalPos="21.90" depart="41" departPos="61.18" from="nt1_nt2" id="morning18_21600" to="nt6_nt10" type="griddist1"/>
    <trip arrivalPos="155.56" depart="47" departPos="134.45" from="nt11_nt15" id="morning19_21600" to="nt6_nt10" type="griddist1"/>
    <trip arrivalPos="65.27" depart="50" departPos="107.59" from="nt4_nt8" id="morning20_21600" to="nt7_nt6" type="griddist1"/>
    <trip arrivalPos="41.62" depart="51" departPos="121.89" from="nt16_nt15" id="morning21_21600" to="nt10_nt11" type="griddist1"/>
    <trip arrivalPos="141.54" depart="56" departPos="24.92" from="np16_nt1" id="morning22_21600" to="nt7_nt6" type="griddist1"/>
    <trip arrivalPos="180.88" depart="57" departPos="156.86" from="nt16_nt15" id="morning23_21600" to="nt7_nt6" type="griddist1"/>
    <trip arrivalPos="4.70" depart="57" departPos="119.28" from="nt6_nt5" id="morning24_21600" to="nt6_nt10" type="griddist1"/>
    <trip arrivalPos="33.49" depart="60" departPos="47.93" from="nt8_nt4" id="morning25_21600" to="nt7_nt6" type="griddist1"/>
    <trip arrivalPos="1.09" depart="62" departPos="60.90" from="nt3_nt7" id="morning26_21600" to="nt11_nt7" type="griddist1"/>
    <trip arrivalPos="25.42" depart="70" departPos="71.82" from="nt7_nt3" id="morning27_21600" to="nt6_nt10" type="griddist1"/>
    <trip arrivalPos="39.93" depart="79" departPos="138.48" from="nt2_nt3" id="morning28_21600" to="nt10_nt11" type="griddist1"/>
    <trip arrivalPos="129.31" depart="79" departPos="66.31" from="nt12_nt8" id="morning29_21600" to="nt11_nt7" type="griddist1"/>
    <trip arrivalPos="9.43" depart="80" departPos="15.22" from="nt5_nt9" id="morning30_21600" to="nt6_nt10" type="griddist1"/>
    <trip arrivalPos="48.76" depart="83" departPos="43.54" from="np4_nt4" id="morning31_21600" to="nt6_nt10" type="griddist1"/>
    <trip arrivalPos="48.95" depart="84" departPos="82.04" from="nt3_nt2" id="morning32_21600" to="nt11_nt7" type="griddist1"/>
    <trip arrivalPos="52.57" depart="86" departPos="79.79" from="nt5_nt6" id="morning33_21600" to="nt10_nt11" type="griddist1"/>
    <trip arrivalPos="8.14" depart="87" departPos="123.82" from="nt3_nt4" id="morning34_21600" to="nt11_nt7" type="griddist1"/>
    <trip arrivalPos="54.01" depart="89" departPos="1.38" from="nt12_nt16" id="morning35_21600" to="nt6_nt10" type="griddist1"/>
    <trip arrivalPos="60.90" depart="96" departPos="19.16" from="np7_nt12" id="morning36_21600" to="nt10_nt11" type="griddist1"/>
    <trip arrivalPos="68.13" depart="100" departPos="13.18" from="np10_nt15" id="morning37_21600" to="nt6_nt10" type="griddist1"/>
    <trip arrivalPos="144.47" depart="101" departPos="154.67" from="nt4_nt3" id="morning38_21600" to="nt6_nt10" type="griddist1"/>
    <trip arrivalPos="3.48" depart="102" departPos="2.87" from="np14_nt9" id="morning39_21600" to="nt7_nt6" type="griddist1"/>
    <trip arrivalPos="106.42" depart="102" departPos="103.18" from="nt8_nt12" id="morning40_21600" to="nt7_nt6" type="griddist1"/>
    <trip arrivalPos="3.74" depart="105" departPos="21.38" from="nt4_nt3" id="morning41_21600" to="nt11_nt7" type="griddist1"/>
    <trip arrivalPos="154.42" depart="105" departPos="114.72" from="nt11_nt10" id="morning42_21600" to="nt7_nt6" type="griddist1"/>
    <trip arrivalPos="45.16" depart="108" departPos="151.33" from="nt8_nt12" id="morning43_21600" to="nt10_nt11" type="griddist1"/>
    <trip arrivalPos="55.60" depart="110" departPos="73.45" from="nt1_nt2" id="morning44_21600" to="nt6_nt10" type="griddist1"/>
    <trip arrivalPos="91.48" depart="111" departPos="31.21" from="nt11_nt12" id="morning45_21600" to="nt11_nt7" type="griddist1"/>
    <trip arrivalPos="62.61" depart="113" departPos="58.52" from="np1_nt1" id="morning46_21600" to="nt6_nt10" type="griddist1"/>
    <trip arrivalPos="43.85" depart="117" departPos="146.05" from="nt4_nt8" id="morning47_21600" to="nt7_nt6" type="griddist1"/>
    <trip arrivalPos="141.10" depart="118" departPos="38.91" from="np3_nt3" id="morning48_21600" to="nt10_nt11" type="griddist1"/>
    <trip arrivalPos="91.71" depart="118" departPos="138.49" from="nt2_nt6" id="morning49_21600" to="nt10_nt11" type="griddist1"/>
    <trip arrivalPos="171.52" depart="118" departPos="83.32" from="nt5_nt6" id="morning50_21600" to="nt7_nt6" type="griddist1"/>
    <trip arrivalPos="154.87" depart="122" departPos="115.91" from="nt16_nt15" id="morning51_21600" to="nt6_nt10" type="griddist1"/>
    <trip arrivalPos="82.07" depart="127" departPos="12.67" from="nt2_nt3" id="morning52_21600" to="nt10_nt11" type="griddist1"/>
    <trip arrivalPos="90.91" depart="128" departPos="10.43" from="nt10_nt9" id="morning53_21600" to="nt11_nt7" type="griddist1"/>
    <trip arrivalPos="149.04" depart="130" departPos="10.56" from="nt10_nt9" id="morning54_21600" to="nt11_nt7" type="griddist1"/>
    <trip arrivalPos="114.15" depart="131" departPos="57.99" from="np14_nt9" id="morning55_21600" to="nt7_nt6" type="griddist1"/>
    <trip arrivalPos="141.89" depart="133" departPos="99.33" from="nt15_nt11" id="morning56_21600" to="nt11_nt7" type="griddist1"/>
    <trip arrivalPos="116.81" depart="134" departPos="150.30" from="nt7_nt8" id="morning57_21600" to="nt11_nt7" type="griddist1"/>
    <trip arrivalPos="11.09" depart="136" departPos="28.00" from="nt11_nt10" id="morning58_21600" to="nt11_nt7" type="griddist1"/>
    <trip arrivalPos="132.58" depart="147" departPos="23.29" from="np16_nt1" id="morning59_21600" to="nt7_nt6" type="griddist1"/>
    <trip arrivalPos="81.25" depart="147" departPos="44.40" from="nt15_nt11" id="morning60_21600" to="nt10_nt11" type="griddist1"/>
    <trip arrivalPos="66.82" depart="150" departPos="28.45" from="nt13_nt9" id="morning61_21600" to="nt6_nt10" type="griddist1"/>
    <trip arrivalPos="107.14" depart="151" departPos="60.64" from="nt10_nt6" id="morning62_21600" to="nt11_nt7" type="griddist1"/>
    <trip arrivalPos="16.94" depart="152" departPos="11.81" from="nt6_nt10" id="morning63_21600" to="nt6_nt10" type="griddist1"/>
    <trip arrivalPos="117.66" depart="156" departPos="134.32" from="nt3_nt4" id="morning64_21600" to="nt11_nt7" type="griddist1"/>
    <trip arrivalPos="108.16" depart="158" departPos="59.74" from="nt8_nt12" id="morning65_21600" to="nt7_nt6" type="griddist1"/>
    <trip arrivalPos="125.17" depart="161" departPos="62.51" from="np3_nt3" id="morning66_21600" to="nt11_nt7" type="griddist1"/>
    <trip arrivalPos="55.48" depart="162" departPos="168.09" from="nt12_nt16" id="morning67_21600" to="nt6_nt10" type="griddist1"/>
    <trip arrivalPos="124.37" depart="163" departPos="150.93" from="nt12_nt11" id="morning68_21600" to="nt7_nt6" type="griddist1"/>
    <trip arrivalPos="94.33" depart="163" departPos="127.21" from="nt6_nt7" id="morning69_21600" to="nt6_nt10" type="griddist1"/>
    <trip arrivalPos="64.98" depart="164" departPos="64.84" from="nt2_nt6" id="morning70_21600" to="nt11_nt7" type="griddist1"/>
    <trip arrivalPos="90.25" depart="164" departPos="71.08" from="np5_nt4" id="morning71_21600" to="nt10_nt11" type="griddist1"/>
    <trip arrivalPos="156.73" depart="168" departPos="5.79" from="np8_nt16" id="morning72_21600" to="nt10_nt11" type="griddist1"/>
    <trip arrivalPos="164.01" depart="171" departPos="56.62" from="np16_nt1" id="morning73_21600" to="nt7_nt6" type="griddist1"/>
    <trip arrivalPos="23.48" depart="177" departPos="57.47" from="np12_nt13" id="morning74_21600" to="nt11_nt7" type="griddist1"/>
    <trip arrivalPos="143.12" depart="178" departPos="154.30" from="nt12_nt11" id="morning75_21600" to="nt10_nt11" type="griddist1"/>
    <trip arrivalPos="76.26" depart="180" departPos="78.43" from="nt6_nt2" id="morning76_21600" to="nt10_nt11" type="griddist1"/>
    <trip arrivalPos="52.88" depart="181" departPos="82.44" from="nt3_nt4" id="morning77_21600" to="nt10_nt11" type="griddist1"/>
    <trip arrivalPos="55.46" depart="185" departPos="95.69" from="nt5_nt1" id="morning78_21600" to="nt11_nt7" type="griddist1"/>
    <trip arrivalPos="65.92" depart="186" departPos="149.65" from="nt6_nt2" id="morning79_21600" to="nt11_nt7" type="griddist1"/>
    <trip arrivalPos="52.30" depart="187" departPos="85.69" from="nt8_nt7" id="morning80_21600" to="nt7_nt6" type="griddist1"/>
    <trip arrivalPos="146.39" depart="188" departPos="179.34" from="nt12_nt11" id="morning81_21600" to="nt6_nt10" type="griddist1"/>
    <trip arrivalPos="119.00" depart="189" departPos="44.80" from="nt6_nt2" id="morning82_21600" to="nt10_nt11" type="griddist1"/>
    <trip arrivalPos="151.58" depart="192" departPos="18.38" from="nt7_nt3" id="morning83_21600" to="nt6_nt10" type="griddist1"/>
    <trip arrivalPos="48.88" depart="200" departPos="136.75" from="nt7_nt11" id="morning84_21600" to="nt11_nt7" type="griddist1"/>
    <trip arrivalPos="175.65" depart="205" departPos="81.19" from="nt7_nt8" id="morning85_21600" to="nt10_nt11" type="griddist1"/>
    <trip arrivalPos="4.78" depart="205" departPos="26.22" from="np8_nt16" id="morning86_21600" to="nt11_nt7" type="griddist1"/>
    <trip arrivalPos="178.22" depart="205" departPos="15.99" from="np13_nt13" id="morning87_21600" to="nt6_nt10" type="griddist1"/>
    <trip arrivalPos="155.75" depart="207" departPos="166.80" from="nt11_nt7" id="morning88_21600" to="nt10_nt11" type="griddist1"/>
    <trip arrivalPos="53.24" depart="207" departPos="24.66" from="nt2_nt6" id="morning89_21600" to="nt7_nt6" type="griddist1"/>
    <trip arrivalPos="126.43" depart="208" departPos="25.76" from="nt6_nt7" id="morning90_21600" to="nt6_nt10" type="griddist1"/>
    <trip arrivalPos="47.50" depart="210" departPos="14.20" from="nt13_nt9" id="morning91_21600" to="nt10_nt11" type="griddist1"/>
    <trip arrivalPos="94.58" depart="211" departPos="134.97" from="nt6_nt7" id="morning92_21600" to="nt6_nt10" type="griddist1"/>
    <trip arrivalPos="8.56" depart="213" departPos="19.45" from="np1_nt1" id="morning93_21600" to="nt11_nt7" type="griddist1"/>
    <trip arrivalPos="20.58" depart="219" departPos="81.91" from="nt12_nt8" id="morning94_21600" to="nt7_nt6" type="griddist1"/>
    <trip arrivalPos="92.36" depart="221" departPos="3.05" from="nt7_nt8" id="morning95_21600" to="nt6_nt10" type="griddist1"/>
    <trip arrivalPos="114.11" depart="222" departPos="32.19" from="np9_nt16" id="morning96_21600" to="nt10_nt11" type="griddist1"/>
    <trip arrivalPos="15.34" depart="223" departPos="49.83" from="np9_nt16" id="morning97_21600" to="nt11_nt7" type="griddist1"/>
    <trip arrivalPos="94.16" depart="229" departPos="94.27" from="nt9_nt13" id="morning98_21600" to="nt10_nt11" type="griddist1"/>
    <trip arrivalPos="84.25" depart="229" departPos="69.97" from="nt9_nt5" id="morning99_21600" to="nt6_nt10" type="griddist1"/>
    <trip arrivalPos="3.01" depart="232" departPos="47.08" from="nt2_nt3" id="morning100_21600" to="nt7_nt6" type="griddist1"/>
    <trip arrivalPos="112.58" depart="234" departPos="131.34" from="nt6_nt10" id="morning101_21600" to="nt11_nt7" type="griddist1"/>
    <trip arrivalPos="7.94" depart="237" departPos="59.59" from="nt5_nt9" id="morning102_21600" to="nt6_nt10" type="griddist1"/>
    <trip arrivalPos="144.61" depart="239" departPos="32.50" from="nt15_nt16" id="morning103_21600" to="nt7_nt6" type="griddist1"/>
    <trip arrivalPos="145.42" depart="240" departPos="113.21" from="nt14_nt10" id="morning104_21600" to="nt6_nt10" type="griddist1"/>
    <trip arrivalPos="54.46" depart="241" departPos="31.03" from="np14_nt9" id="morning105_21600" to="nt7_nt6" type="griddist1"/>
    <trip arrivalPos="173.23" depart="244" departPos="3.14" from="np12_nt13" id="morning106_21600" to="nt10_nt11" type="griddist1"/>
    <trip arrivalPos="47.02" depart="246" departPos="97.31" from="nt15_nt11" id="morning107_21600" to="nt7_nt6" type="griddist1"/>
    <trip arrivalPos="144.92" depart="248" departPos="66.25" from="nt5_nt6" id="morning108_21600" to="nt10_nt11" type="griddist1"/>
    <trip arrivalPos="65.95" depart="248" departPos="22.31" from="nt7_nt3" id="morning109_21600" to="nt11_nt7" type="griddist1"/>
    <trip arrivalPos="69.29" depart="249" departPos="166.04" from="nt7_nt6" id="morning110_21600" to="nt6_nt10" type="griddist1"/>
    <trip arrivalPos="165.64" depart="255" departPos="89.16" from="nt9_nt13" id="morning111_21600" to="nt11_nt7" type="griddist1"/>
    <trip arrivalPos="14.65" depart="258" departPos="134.95" from="nt15_nt14" id="morning112_21600" to="nt7_nt6" type="griddist1"/>
    <trip arrivalPos="59.62" depart="260" departPos="97.75" from="nt1_nt5" id="morning113_21600" to="nt7_nt6" type="griddist1"/>
    <trip arrivalPos="107.99" depart="262" departPos="20.78" from="np15_nt5" id="morning114_21600" to="nt6_nt10" type="griddist1"/>
    <trip arrivalPos="7.59" depart="263" departPos="65.25" from="nt13_nt14" id="morning115_21600" to="nt6_nt10" type="griddist1"/>
    <trip arrivalPos="49.20" depart="267" departPos="178.87" from="nt7_nt3" id="morning116_21600" to="nt11_nt7" type="griddist1"/>
    <trip arrivalPos="118.32" depart="271" departPos="13.45" from="nt9_nt13" id="morning117_21600" to="nt7_nt6" type="griddist1"/>
    <trip arrivalPos="176.84" depart="276" departPos="121.75" from="nt11_nt7" id="morning118_21600" to="nt7_nt6" type="griddist1"/>
    <trip arrivalPos="6.24" depart="278" departPos="50.47" from="np3_nt3" id="morning119_21600" to="nt6_nt10" type="griddist1"/>
    <trip arrivalPos="71.06" depart="280" departPos="24.84" from="np14_nt9" id="morning120_21600" to="nt7_nt6" type="griddist1"/>
    <trip arrivalPos="170.03" depart="280" departPos="126.03" from="nt16_nt15" id="morning121_21600" to="nt6_nt10" type="griddist1"/>
    <trip arrivalPos="98.27" depart="281" departPos="102.85" from="nt11_nt7" id="morning122_21600" to="nt7_nt6" type="griddist1"/>
    <trip arrivalPos="20.33" depart="281" departPos="44.73" from="nt12_nt16" id="morning123_21600" to="nt6_nt10" type="griddist1"/>
    <trip arrivalPos="100.65" depart="281" departPos="69.35" from="nt5_nt1" id="morning124_21600" to="nt11_nt7" type="griddist1"/>
    <trip arrivalPos="178.55" depart="282" departPos="82.83" from="nt10_nt11" id="morning125_21600" to="nt11_nt7" type="griddist1"/>
    <trip arrivalPos="22.76" depart="283" departPos="88.02" from="nt10_nt6" id="morning126_21600" to="nt7_nt6" type="griddist1"/>
    <trip arrivalPos="79.76" depart="284" departPos="161.04" from="nt7_nt11" id="morning127_21600" to="nt11_nt7" type="griddist1"/>
    <trip arrivalPos="57.27" depart="284" departPos="57.33" from="np15_nt5" id="morning128_21600" to="nt6_nt10" type="griddist1"/>
    <trip arrivalPos="165.43" depart="285" departPos="97.16" from="nt11_nt15" id="morning129_21600" to="nt10_nt11" type="griddist1"/>
    <trip arrivalPos="114.28" depart="286" departPos="166.18" from="nt7_nt11" id="morning130_21600" to="nt6_nt10" type="griddist1"/>
    <trip arrivalPos="36.02" depart="290" departPos="21.75" from="nt6_nt10" id="morning131_21600" to="nt6_nt10" type="griddist1"/>
    <trip arrivalPos="102.83" depart="290" departPos="1.70" from="np2_nt2" id="morning132_21600" to="nt7_nt6" type="griddist1"/>
    <trip arrivalPos="113.58" depart="291" departPos="98.86" from="nt11_nt7" id="morning133_21600" to="nt7_nt6" type="griddist1"/>
    <trip arrivalPos="128.82" depart="292" departPos="67.77" from="np15_nt5" id="morning134_21600" to="nt11_nt7" type="griddist1"/>
    <trip arrivalPos="13.69" depart="292" departPos="152.81" from="nt15_nt14" id="morning135_21600" to="nt7_nt6" type="griddist1"/>
    <trip arrivalPos="121.88" depart="297" departPos="80.64" from="nt9_nt13" id="morning136_21600" to="nt6_nt10" type="griddist1"/>
    <trip arrivalPos="118.75" depart="298" departPos="139.82" from="nt11_nt15" id="morning137_21600" to="nt7_nt6" type="griddist1"/>
    <trip arrivalPos="169.03" depart="300" departPos="32.45" from="np5_nt4" id="morning138_21600" to="nt7_nt6" type="griddist1"/>
    <trip arrivalPos="30.56" depart="302" departPos="10.37" from="np13_nt13" id="morning139_21600" to="nt10_nt11" type="griddist1"/>
    <trip arrivalPos="168.61" depart="303" departPos="64.22" from="nt11_nt10" id="morning140_21600" to="nt6_nt10" type="griddist1"/>
    <trip arrivalPos="117.87" depart="306" departPos="46.51" from="nt7_nt8" id="morning141_21600" to="nt7_nt6" type="griddist1"/>
    <trip arrivalPos="99.01" depart="307" departPos="54.27" from="nt16_nt12" id="morning142_21600" to="nt10_nt11" type="griddist1"/>
    <trip arrivalPos="28.62" depart="308" departPos="168.74" from="nt15_nt11" id="morning143_21600" to="nt10_nt11" type="griddist1"/>
    <trip arrivalPos="150.98" depart="308" departPos="112.31" from="nt3_nt2" id="morning144_21600" to="nt6_nt10" type="griddist1"/>
    <trip arrivalPos="8.44" depart="308" departPos="5.27" from="nt16_nt15" id="morning145_21600" to="nt7_nt6" type="griddist1"/>
    <trip arrivalPos="137.44" depart="311" departPos="116.68" from="nt2_nt6" id="morning146_21600" to="nt6_nt10" type="griddist1"/>
    <trip arrivalPos="112.39" depart="317" departPos="89.25" from="nt12_nt8" id="morning147_21600" to="nt6_nt10" type="griddist1"/>
    <trip arrivalPos="149.35" depart="322" departPos="86.54" from="nt10_nt6" id="morning148_21600" to="nt7_nt6" type="griddist1"/>
    <trip arrivalPos="10.74" depart="322" departPos="13.54" from="nt3_nt4" id="morning149_21600" to="nt11_nt7" type="griddist1"/>
    <trip arrivalPos="108.71" depart="323" departPos="36.56" from="nt13_nt9" id="morning150_21600" to="nt11_nt7" type="griddist1"/>
    <trip arrivalPos="154.25" depart="326" departPos="136.27" from="nt11_nt10" id="morning151_21600" to="nt6_nt10" type="griddist1"/>
    <trip arrivalPos="104.24" depart="328" departPos="66.40" from="nt9_nt13" id="morning152_21600" to="nt10_nt11" type="griddist1"/>
    <trip arrivalPos="44.43" depart="328" departPos="49.64" from="nt11_nt10" id="morning153_21600" to="nt11_nt7" type="griddist1"/>
    <trip arrivalPos="110.28" depart="329" departPos="26.05" from="np16_nt1" id="morning154_21600" to="nt11_nt7" type="griddist1"/>
    <trip arrivalPos="60.77" depart="330" departPos="11.98" from="np9_nt16" id="morning155_21600" to="nt7_nt6" type="griddist1"/>
    <trip arrivalPos="89.29" depart="332" departPos="141.64" from="nt16_nt15" id="morning156_21600" to="nt11_nt7" type="griddist1"/>
    <trip arrivalPos="4.15" depart="335" departPos="55.29" from="nt15_nt11" id="morning157_21600" to="nt11_nt7" type="griddist1"/>
    <trip arrivalPos="38.55" depart="335" departPos="179.42" from="nt8_nt7" id="morning158_21600" to="nt6_nt10" type="griddist1"/>
    <trip arrivalPos="163.76" depart="343" departPos="88.69" from="nt11_nt15" id="morning159_21600" to="nt10_nt11" type="griddist1"/>
    <trip arrivalPos="151.81" depart="347" departPos="96.17" from="nt2_nt6" id="morning160_21600" to="nt11_nt7" type="griddist1"/>
    <trip arrivalPos="141.77" depart="348" departPos="135.03" from="nt13_nt14" id="morning161_21600" to="nt7_nt6" type="griddist1"/>
    <trip arrivalPos="34.88" depart="350" departPos="102.19" from="nt11_nt7" id="morning162_21600" to="nt11_nt7" type="griddist1"/>
    <trip arrivalPos="141.87" depart="350" departPos="90.36" from="nt16_nt12" id="morning163_21600" to="nt10_nt11" type="griddist1"/>
    <trip arrivalPos="22.05" depart="354" departPos="121.93" from="nt10_nt14" id="morning164_21600" to="nt7_nt6" type="griddist1"/>
    <trip arrivalPos="60.76" depart="356" departPos="142.45" from="nt9_nt13" id="morning165_21600" to="nt11_nt7" type="griddist1"/>
    <trip arrivalPos="94.49" depart="360" departPos="36.95" from="nt8_nt7" id="morning166_21600" to="nt7_nt6" type="griddist1"/>
    <trip arrivalPos="61.81" depart="369" departPos="24.56" from="nt15_nt11" id="morning167_21600" to="nt10_nt11" type="griddist1"/>
    <trip arrivalPos="92.38" depart="369" departPos="112.52" from="nt14_nt13" id="morning168_21600" to="nt11_nt7" type="griddist1"/>
    <trip arrivalPos="177.52" depart="370" departPos="30.16" from="nt11_nt10" id="morning169_21600" to="nt6_nt10" type="griddist1"/>
    <trip arrivalPos="148.43" depart="372" departPos="60.28" from="nt5_nt1" id="morning170_21600" to="nt11_nt7" type="griddist1"/>
    <trip arrivalPos="146.18" depart="373" departPos="55.64" from="nt15_nt16" id="morning171_21600" to="nt6_nt10" type="griddist1"/>
    <trip arrivalPos="104.60" depart="374" departPos="175.60" from="nt11_nt7" id="morning172_21600" to="nt6_nt10" type="griddist1"/>
    <trip arrivalPos="4.78" depart="375" departPos="123.30" from="nt6_nt10" id="morning173_21600" to="nt6_nt10" type="griddist1"/>
    <trip arrivalPos="144.06" depart="378" departPos="145.31" from="nt14_nt13" id="morning174_21600" to="nt7_nt6" type="griddist1"/>
    <trip arrivalPos="30.56" depart="379" departPos="108.30" from="nt16_nt15" id="morning175_21600" to="nt6_nt10" type="griddist1"/>
    <trip arrivalPos="26.48" depart="381" departPos="156.12" from="nt2_nt3" id="morning176_21600" to="nt6_nt10" type="griddist1"/>
    <trip arrivalPos="20.40" depart="381" departPos="175.99" from="nt3_nt4" id="morning177_21600" to="nt10_nt11" type="griddist1"/>
    <trip arrivalPos="123.74" depart="382" departPos="11.36" from="np11_nt14" id="morning178_21600" to="nt11_nt7" type="griddist1"/>
    <trip arrivalPos="161.99" depart="382" departPos="164.96" from="nt12_nt8" id="morning179_21600" to="nt7_nt6" type="griddist1"/>
    <trip arrivalPos="38.48" depart="383" departPos="24.74" from="nt5_nt1" id="morning180_21600" to="nt10_nt11" type="griddist1"/>
    <trip arrivalPos="56.22" depart="386" departPos="97.53" from="nt11_nt10" id="morning181_21600" to="nt6_nt10" type="griddist1"/>
    <trip arrivalPos="65.76" depart="396" departPos="25.67" from="np5_nt4" id="morning182_21600" to="nt7_nt6" type="griddist1"/>
    <trip arrivalPos="124.24" depart="397" departPos="115.28" from="nt5_nt9" id="morning183_21600" to="nt6_nt10" type="griddist1"/>
    <trip arrivalPos="103.58" depart="397" departPos="45.75" from="nt2_nt1" id="morning184_21600" to="nt10_nt11" type="griddist1"/>
    <trip arrivalPos="53.64" depart="398" departPos="22.32" from="np8_nt16" id="morning185_21600" to="nt7_nt6" type="griddist1"/>
    <trip arrivalPos="62.51" depart="401" departPos="23.78" from="np7_nt12" id="morning186_21600" to="nt6_nt10" type="griddist1"/>
    <trip arrivalPos="22.62" depart="403" departPos="49.00" from="nt8_nt4" id="morning187_21600" to="nt7_nt6" type="griddist1"/>
    <trip arrivalPos="146.65" depart="403" departPos="181.92" from="nt3_nt4" id="morning188_21600" to="nt11_nt7" type="griddist1"/>
    <trip arrivalPos="53.38" depart="405" departPos="53.91" from="nt9_nt10" id="morning189_21600" to="nt7_nt6" type="griddist1"/>
    <trip arrivalPos="45.95" depart="406" departPos="82.11" from="nt4_nt3" id="morning190_21600" to="nt11_nt7" type="griddist1"/>
    <trip arrivalPos="173.17" depart="406" departPos="99.96" from="nt14_nt13" id="morning191_21600" to="nt10_nt11" type="griddist1"/>
    <trip arrivalPos="108.92" depart="408" departPos="110.33" from="nt3_nt7" id="morning192_21600" to="nt10_nt11" type="griddist1"/>
    <trip arrivalPos="114.32" depart="409" departPos="39.83" from="np9_nt16" id="morning193_21600" to="nt6_nt10" type="griddist1"/>
    <trip arrivalPos="18.02" depart="411" departPos="48.64" from="np13_nt13" id="morning194_21600" to="nt11_nt7" type="griddist1"/>
    <trip arrivalPos="172.44" depart="411" departPos="98.62" from="nt5_nt9" id="morning195_21600" to="nt10_nt11" type="griddist1"/>
    <trip arrivalPos="88.61" depart="411" departPos="157.41" from="nt12_nt8" id="morning196_21600" to="nt7_nt6" type="griddist1"/>
    <trip arrivalPos="119.88" depart="413" departPos="24.09" from="np6_nt8" id="morning197_21600" to="nt7_nt6" type="griddist1"/>
    <trip arrivalPos="99.32" depart="417" departPos="102.88" from="nt8_nt12" id="morning198_21600" to="nt10_nt11" type="griddist1"/>
    <trip arrivalPos="32.49" depart="418" departPos="163.65" from="nt4_nt8" id="morning199_21600" to="nt7_nt6" type="griddist1"/>
    <trip arrivalPos="185.08" depart="419" departPos="170.68" from="nt7_nt6" id="morning200_21600" to="nt10_nt11" type="griddist1"/>
    <trip arrivalPos="172.41" depart="420" departPos="167.84" from="nt12_nt16" id="morning201_21600" to="nt11_nt7" type="griddist1"/>
    <trip arrivalPos="105.41" depart="421" departPos="1.66" from="nt8_nt4" id="morning202_21600" to="nt7_nt6" type="griddist1"/>
    <trip arrivalPos="183.58" depart="424" departPos="19.29" from="np16_nt1" id="morning203_21600" to="nt7_nt6" type="griddist1"/>
    <trip arrivalPos="152.51" depart="428" departPos="174.20" from="nt15_nt16" id="morning204_21600" to="nt11_nt7" type="griddist1"/>
    <trip arrivalPos="30.16" depart="432" departPos="20.19" from="nt14_nt10" id="morning205_21600" to="nt10_nt11" type="griddist1"/>
    <trip arrivalPos="132.00" depart="435" departPos="33.37" from="nt14_nt10" id="morning206_21600" to="nt11_nt7" type="griddist1"/>
    <trip arrivalPos="31.45" depart="436" departPos="135.71" from="nt6_nt10" id="morning207_21600" to="nt6_nt10" type="griddist1"/>
    <trip arrivalPos="95.64" depart="436" departPos="148.20" from="nt7_nt11" id="morning208_21600" to="nt7_nt6" type="griddist1"/>
    <trip arrivalPos="25.20" depart="438" departPos="12.53" from="np15_nt5" id="morning209_21600" to="nt6_nt10" type="griddist1"/>
    <trip arrivalPos="43.71" depart="442" departPos="48.40" from="nt11_nt10" id="morning210_21600" to="nt10_nt11" type="griddist1"/>
    <trip arrivalPos="134.17" depart="442" departPos="56.04" from="nt5_nt6" id="morning211_21600" to="nt7_nt6" type="griddist1"/>
    <trip arrivalPos="11.13" depart="443" departPos="51.96" from="np10_nt15" id="morning212_21600" to="nt6_nt10" type="griddist1"/>
    <trip arrivalPos="90.05" depart="444" departPos="26.19" from="np1_nt1" id="morning213_21600" to="nt11_nt7" type="griddist1"/>
    <trip arrivalPos="21.04" depart="447" departPos="57.72" from="nt7_nt8" id="morning214_21600" to="nt6_nt10" type="griddist1"/>
    <trip arrivalPos="39.27" depart="449" departPos="110.14" from="nt8_nt12" id="morning215_21600" to="nt11_nt7" type="griddist1"/>
    <trip arrivalPos="112.43" depart="456" departPos="48.30" from="np2_nt2" id="morning216_21600" to="nt10_nt11" type="griddist1"/>
    <trip arrivalPos="96.32" depart="456" departPos="84.37" from="nt12_nt8" id="morning217_21600" to="nt6_nt10" type="griddist1"/>
    <trip arrivalPos="140.08" depart="458" departPos="45.93" from="nt3_nt2" id="morning218_21600" to="nt10_nt11" type="griddist1"/>
    <trip arrivalPos="130.62" depart="458" departPos="80.06" from="nt7_nt3" id="morning219_21600" to="nt10_nt11" type="griddist1"/>
    <trip arrivalPos="98.14" depart="464" departPos="4.19" from="np14_nt9" id="morning220_21600" to="nt6_nt10" type="griddist1"/>
    <trip arrivalPos="58.80" depart="467" departPos="26.85" from="nt15_nt11" id="morning221_21600" to="nt6_nt10" type="griddist1"/>
    <trip arrivalPos="108.23" depart="468" departPos="38.12" from="nt15_nt14" id="morning222_21600" to="nt10_nt11" type="griddist1"/>
    <trip arrivalPos="81.26" depart="469" departPos="54.83" from="np15_nt5" id="morning223_21600" to="nt6_nt10" type="griddist1"/>
    <trip arrivalPos="82.86" depart="469" departPos="10.35" from="nt15_nt11" id="morning224_21600" to="nt11_nt7" type="griddist1"/>
    <trip arrivalPos="146.31" depart="470" departPos="70.95" from="nt6_nt2" id="morning225_21600" to="nt6_nt10" type="griddist1"/>
    <trip arrivalPos="61.74" depart="471" departPos="8.12" from="nt5_nt1" id="morning226_21600" to="nt6_nt10" type="griddist1"/>
    <trip arrivalPos="12.81" depart="472" departPos="63.36" from="np14_nt9" id="morning227_21600" to="nt7_nt6" type="griddist1"/>
    <trip arrivalPos="142.72" depart="472" departPos="73.27" from="nt8_nt4" id="morning228_21600" to="nt10_nt11" type="griddist1"/>