<routes>
    <trip arrivalPos="53.94" depart="46801" departPos="31.62" from="np12_nt13" id="pse10_68400" to="nt4_np4" type="griddist1"/>
    <trip arrivalPos="61.49" depart="46802" departPos="3.91" from="np9_nt16" id="pse11_68400" to="nt3_np3" type="griddist1"/>
    <trip arrivalPos="2.60" depart="46806" departPos="71.80" from="np12_nt13" id="pse12_68400" to="nt1_np1" type="griddist1"/>
    <trip arrivalPos="40.14" depart="46808" departPos="62.94" from="np10_nt15" id="pse13_68400" to="nt1_np1" type="griddist1"/>
    <trip arrivalPos="61.23" depart="46813" departPos="8.58" from="np12_nt13" id="pse14_68400" to="nt2_np2" type="griddist1"/>
    <trip arrivalPos="39.14" depart="46814" departPos="27.67" from="np9_nt16" id="pse15_68400" to="nt2_np2" type="griddist1"/>
    <trip arrivalPos="10.58" depart="46822" departPos="144.36" from="nt8_nt7" id="pse16_68400" to="nt3_np3" type="griddist1"/>
    <trip arrivalPos="37.20" depart="46824" departPos="62.98" from="np14_nt9" id="pse17_68400" to="nt3_np3" type="griddist1"/>
    <trip arrivalPos="12.81" depart="46826" departPos="168.71" from="nt7_nt11" id="pse18_68400" to="nt2_np2" type="griddist1"/>
    <trip arrivalPos="45.04" depart="46829" departPos="43.52" from="nt11_nt7" id="pse19_68400" to="nt4_np4" type="griddist1"/>
    <trip arrivalPos="51.44" depart="46832" departPos="54.61" from="np13_nt13" id="pse110_68400" to="nt3_np3" type="griddist1"/>
    <trip arrivalPos="42.73" depart="46838" departPos="98.88" from="nt11_nt10" id="pse111_68400" to="nt1_np1" type="griddist1"/>
    <trip arrivalPos="27.14" depart="46839" departPos="0.95" from="np10_nt15" id="pse112_68400" to="nt3_np3" type="griddist1"/>
    <trip arrivalPos="57.60" depart="46847" departPos="27.16" from="np9_nt16" id="pse113_68400" to="nt2_np2" type="griddist1"/>
    <trip arrivalPos="33.70" depart="46860" departPos="13.21" from="np9_nt16" id="pse114_68400" to="nt1_np1" type="griddist1"/>
    <trip arrivalPos="50.04" depart="46879" departPos="164.80" from="nt14_nt10" id="pse115_68400" to="nt3_np3" type="griddist1"/>
    <trip arrivalPos="20.82" depart="46880" departPos="44.44" from="np9_nt16" id="pse116_68400" to="nt4_np4" type="griddist1"/>
    <trip arrivalPos="29.12" depart="46886" departPos="20.92" from="np12_nt13" id="pse117_68400" to="nt4_np4" type="griddist1"/>
    <trip arrivalPos="21.73" depart="46896" departPos="124.02" from="nt2_nt1" id="pse118_68400" to="nt3_np3" type="griddist1"/>
    <trip arrivalPos="22.92" depart="46900" departPos="36.57" from="np9_nt16" id="pse119_68400" to="nt2_np2" type="griddist1"/>
    <trip arrivalPos="56.85" depart="46901" departPos="44.71" from="np12_nt13" id="pse120_68400" to="nt2_np2" type="griddist1"/>
    <trip arrivalPos="15.59" depart="46902" departPos="35.46" from="nt10_nt9" id="pse121_68400" to="nt3_np3" type="griddist1"/>
    <trip arrivalPos="30.76" depart="46908" departPos="18.02" from="np7_nt12" id="pse122_68400" to="nt3_np3" type="griddist1"/>
    <trip arrivalPos="19.01" depart="46910" departPos="3.09" from="nt16_nt12" id="pse123_68400" to="nt2_np2" type="griddist1"/>
    <trip arrivalPos="23.84" depart="46911" departPos="49.80" from="np7_nt12" id="pse124_68400" to="nt1_np1" type="griddist1"/>
    <trip arrivalPos="35.56" depart="46913" departPos="184.97" from="nt10_nt9" id="pse125_68400" to="nt2_np2" type="griddist1"/>
    <trip arrivalPos="14.89" depart="46918" departPos="19.81" from="np2_nt2" id="pse126_68400" to="nt2_np2" type="griddist1"/>
    <trip arrivalPos="61.43" depart="46922" departPos="137.88" from="nt16_nt15" id="pse127_68400" to="nt2_np2" type="griddist1"/>
    <trip arrivalPos="17.86" depart="46928" departPos="137.09" from="nt15_nt14" id="pse128_68400" to="nt1_np1" type="griddist1"/>
    <trip arrivalPos="63.34" depart="46930" departPos="106.94" from="nt11_nt15" id="pse129_68400" to="nt4_np4" type="griddist1"/>
    <trip arrivalPos="19.53" depart="46931" departPos="64.67" from="nt5_nt1" id="pse130_68400" to="nt2_np2" type="griddist1"/>
    <trip arrivalPos="3.52" depart="46947" departPos="8.45" from="nt15_nt16" id="pse131_68400" to="nt1_np1" type="griddist1"/>
    <trip arrivalPos="48.63" depart="46956" departPos="47.84" from="np12_nt13" id="pse132_68400" to="nt4_np4" type="griddist1"/>
    <trip arrivalPos="30.92" depart="46958" departPos="21.33" from="np11_nt14" id="pse133_68400" to="nt1_np1" type="griddist1"/>
    <trip arrivalPos="55.67" depart="46962" departPos="16.31" from="np1_nt1" id="pse134_68400" to="nt4_np4" type="griddist1"/>
    <trip arrivalPos="37.28" depart="46963" departPos="36.88" from="np11_nt14" id="pse135_68400" to="nt1_np1" type="griddist1"/>
    <trip arrivalPos="61.31" depart="46971" departPos="145.36" from="nt15_nt11" id="pse136_68400" to="nt1_np1" type="griddist1"/>
    <trip arrivalPos="26.88" depart="46977" departPos="41.86" from="np10_nt15" id="pse137_68400" to="nt1_np1" type="griddist1"/>
    <trip arrivalPos="24.57" depart="46980" departPos="139.00" from="nt11_nt7" id="pse138_68400" to="nt3_np3" type="griddist1"/>
    <trip arrivalPos="27.70" depart="46981" departPos="105.46" from="nt7_nt11" id="pse139_68400" to="nt2_np2" type="griddist1"/>
    <trip arrivalPos="6.41" depart="46987" departPos="178.20" from="nt11_nt10" id="pse140_68400" to="nt1_np1" type="griddist1"/>
    <trip arrivalPos="5.24" depart="46989" departPos="49.12" from="nt2_nt3" id="pse141_68400" to="nt3_np3" type="griddist1"/>
    <trip arrivalPos="26.39" depart="46992" departPos="11.74" from="np12_nt13" id="pse142_68400" to="nt3_np3" type="griddist1"/>
    <trip arrivalPos="18.61" depart="47005" departPos="5.85" from="nt15_nt11" id="pse143_68400" to="nt2_np2" type="griddist1"/>
    <trip arrivalPos="15.08" depart="47005" departPos="5.34" from="np12_nt13" id="pse144_68400" to="nt4_np4" type="griddist1"/>
    <trip arrivalPos="51.93" depart="47005" departPos="44.23" from="np12_nt13" id="pse145_68400" to="nt4_np4" type="griddist1"/>
    <trip arrivalPos="9.62" depart="47007" departPos="16.86" from="np11_nt14" id="pse146_68400" to="nt1_np1" type="griddist1"/>
    <trip arrivalPos="51.20" depart="47008" departPos="4.47" from="np12_nt13" id="pse147_68400" to="nt1_np1" type="griddist1"/>
    <trip arrivalPos="28.37" depart="47021" departPos="165.08" from="nt11_nt7" id="pse148_68400" to="nt4_np4" type="griddist1"/>
    <trip arrivalPos="17.59" depart="47029" departPos="30.19" from="np9_nt16" id="pse149_68400" to="nt2_np2" type="griddist1"/>
    <trip arrivalPos="57.46" depart="47032" departPos="107.17" from="nt10_nt14" id="pse150_68400" to="nt2_np2" type="griddist1"/>
    <trip arrivalPos="14.79" depart="47034" departPos="4.80" from="nt1_nt2" id="pse151_68400" to="nt3_np3" type="griddist1"/>
    <trip arrivalPos="1.34" depart="47037" departPos="108.97" from="nt14_nt15" id="pse152_68400" to="nt4_np4" type="griddist1"/>
    <trip arrivalPos="49.30" depart="47039" departPos="106.95" from="nt2_nt3" id="pse153_68400" to="nt4_np4" type="griddist1"/>
    <trip arrivalPos="17.97" depart="47040" departPos="33.17" from="np11_nt14" id="pse154_68400" to="nt3_np3" type="griddist1"/>
    <trip arrivalPos="62.60" depart="47041" departPos="145.91" from="nt9_nt5" id="pse155_68400" to="nt2_np2" type="griddist1"/>
    <trip arrivalPos="6.76" depart="47048" departPos="24.08" from="np9_nt16" id="pse156_68400" to="nt2_np2" type="griddist1"/>
    <trip arrivalPos="42.80" depart="47049" departPos="37.16" from="np11_nt14" id="pse157_68400" to="nt2_np2" type="griddist1"/>
    <trip arrivalPos="5.69" depart="47055" departPos="2.75" from="np7_nt12" id="pse158_68400" to="nt4_np4" type="griddist1"/>
    <trip arrivalPos="55.87" depart="47060" departPos="57.94" from="np12_nt13" id="pse159_68400" to="nt1_np1" type="griddist1"/>
    <trip arrivalPos="29.84" depart="47062" departPos="155.79" from="nt4_nt8" id="pse160_68400" to="nt1_np1" type="griddist1"/>
    <trip arrivalPos="32.20" depart="47063" departPos="46.70" from="np10_nt15" id="pse161_68400" to="nt3_np3" type="griddist1"/>
    <trip arrivalPos="8.46" depart="47071" departPos="20.03" from="np9_nt16" id="pse162_68400" to="nt1_np1" type="griddist1"/>
    <trip arrivalPos="1.86" depart="47076" departPos="36.35" from="np12_nt13" id="pse163_68400" to="nt4_np4" type="griddist1"/>
    <trip arrivalPos="20.07" depart="47078" departPos="131.74" from="nt13_nt14" id="pse164_68400" to="nt4_np4" type="griddist1"/>
    <trip arrivalPos="54.35" depart="47080" departPos="16.85" from="np10_nt15" id="pse165_68400" to="nt2_np2" type="griddist1"/>
    <trip arrivalPos="9.95" depart="47081" departPos="48.58" from="np11_nt14" id="pse166_68400" to="nt4_np4" type="griddist1"/>
    <trip arrivalPos="26.84" depart="47083" departPos="130.92" from="nt7_nt8" id="pse167_68400" to="nt2_np2" type="griddist1"/>
    <trip arrivalPos="9.34" depart="47084" departPos="34.26" from="np9_nt16" id="pse168_68400" to="nt2_np2" type="griddist1"/>
    <trip arrivalPos="8.82" depart="47084" departPos="55.97" from="np11_nt14" id="pse169_68400" to="nt3_np3" type="griddist1"/>
    <trip arrivalPos="21.96" depart="47086" departPos="64.08" from="np10_nt15" id="pse170_68400" to="nt4_np4" type="griddist1"/>
    <trip arrivalPos="46.90" depart="47090" departPos="0.48" from="nt3_nt2" id="pse171_68400" to="nt2_np2" type="griddist1"/>
    <trip arrivalPos="55.90" depart="47090" departPos="118.26" from="nt5_nt1" id="pse172_68400" to="nt3_np3" type="griddist1"/>
    <trip arrivalPos="49.28" depart="47092" departPos="24.93" from="np9_nt16" id="pse173_68400" to="nt2_np2" type="griddist1"/>
    <trip arrivalPos="63.36" depart="47097" departPos="56.18" from="np4_nt4" id="pse174_68400" to="nt4_np4" type="griddist1"/>
    <trip arrivalPos="26.54" depart="47098" departPos="64.20" from="np12_nt13" id="pse175_68400" to="nt2_np2" type="griddist1"/>
    <trip arrivalPos="24.63" depart="47100" departPos="61.93" from="np14_nt9" id="pse176_68400" to="nt2_np2" type="griddist1"/>
    <trip arrivalPos="9.83" depart="47108" departPos="116.84" from="nt9_nt13" id="pse177_68400" to="nt4_np4" type="griddist1"/>
    <trip arrivalPos="21.45" depart="47108" departPos="179.17" from="nt8_nt7" id="pse178_68400" to="nt1_np1" type="griddist1"/>
    <trip arrivalPos="58.81" depart="47117" departPos="7.48" from="np11_nt14" id="pse179_68400" to="nt4_np4" type="griddist1"/>
    <trip arrivalPos="62.66" depart="47122" departPos="65.32" from="np10_nt15" id="pse180_68400" to="nt1_np1" type="griddist1"/>
    <trip arrivalPos="40.26" depart="47122" departPos="19.88" from="np10_nt15" id="pse181_68400" to="nt4_np4" type="griddist1"/>
    <trip arrivalPos="43.56" depart="47126" departPos="24.64" from="np6_nt8" id="pse182_68400" to="nt1_np1" type="griddist1"/>
    <trip arrivalPos="57.33" depart="47128" departPos="112.32" from="nt10_nt14" id="pse183_68400" to="nt4_np4" type="griddist1"/>
    <trip arrivalPos="15.17" depart="47130" departPos="46.31" from="np9_nt16" id="pse184_68400" to="nt3_np3" type="griddist1"/>
    <trip arrivalPos="5.84" depart="47135" departPos="40.77" from="nt15_nt11" id="pse185_68400" to="nt2_np2" type="griddist1"/>
    <trip arrivalPos="6.49" depart="47143" departPos="130.64" from="nt9_nt10" id="pse186_68400" to="nt4_np4" type="griddist1"/>
    <trip arrivalPos="20.95" depart="47147" departPos="2.17" from="np11_nt14" id="pse187_68400" to="nt2_np2" type="griddist1"/>
    <trip arrivalPos="15.78" depart="47150" departPos="32.30" from="np10_nt15" id="pse188_68400" to="nt2_np2" type="griddist1"/>
    <trip arrivalPos="11.31" depart="47156" departPos="13.50" from="np8_nt16" id="pse189_68400" to="nt3_np3" type="griddist1"/>
    <trip arrivalPos="32.15" depart="47172" departPos="126.79" from="nt12_nt11" id="pse190_68400" to="nt2_np2" type="griddist1"/>
    <trip arrivalPos="29.69" depart="47178" departPos="114.31" from="nt11_nt15" id="pse191_68400" to="nt1_np1" type="griddist1"/>
    <trip arrivalPos="18.58" depart="47179" departPos="86.35" from="nt14_nt13" id="pse192_68400" to="nt4_np4" type="griddist1"/>
    <trip arrivalPos="63.80" depart="47182" departPos="169.39" from="nt10_nt6" id="pse193_68400" to="nt1_np1" type="griddist1"/>
    <trip arrivalPos="29.51" depart="47182" departPos="51.77" from="np12_nt13" id="pse194_68400" to="nt4_np4" type="griddist1"/>
    <trip arrivalPos="6.89" depart="47183" departPos="57.86" from="np13_nt13" id="pse195_68400" to="nt4_np4" type="griddist1"/>
    <trip arrivalPos="45.17" depart="47186" departPos="22.19" from="np5_nt4" id="pse196_68400" to="nt2_np2" type="griddist1"/>
    <trip arrivalPos="0.52" depart="47196" departPos="29.69" from="np10_nt15" id="pse197_68400" to="nt4_np4" type="griddist1"/>
    <trip arrivalPos="58.83" depart="47197" departPos="174.47" from="nt6_nt10" id="pse198_68400" to="nt4_np4" type="griddist1"/>
    <trip arrivalPos="50.11" depart="47201" departPos="161.81" from="nt1_nt5" id="pse199_68400" to="nt4_np4" type="griddist1"/>
    <trip arrivalPos="12.28" depart="47203" departPos="16.43" from="np12_nt13" id="pse1100_68400" to="nt4_np4" type="griddist1"/>
    <trip arrivalPos="43.98" depart="47209" departPos="57.56" from="np12_nt13" id="pse1101_68400" to="nt4_np4" type="griddist1"/>
    <trip arrivalPos="2.55" depart="47213" departPos="47.06" from="np11_nt14" id="pse1102_68400" to="nt1_np1" type="griddist1"/>
    <trip arrivalPos="8.49" depart="47218" departPos="67.72" from="nt3_nt2" id="pse1103_68400" to="nt1_np1" type="griddist1"/>
    <trip arrivalPos="12.97" depart="47219" departPos="74.46" from="nt7_nt11" id="pse1104_68400" to="nt2_np2" type="griddist1"/>
    <trip arrivalPos="32.42" depart="47221" departPos="67.90" from="nt3_nt2" id="pse1105_68400" to="nt4_np4" type="griddist1"/>
    <trip arrivalPos="60.99" depart="47224" departPos="68.55" from="np12_nt13" id="pse1106_68400" to="nt1_np1" type="griddist1"/>
    <trip arrivalPos="51.95" depart="47235" departPos="161.55" from="nt8_nt7" id="pse1107_68400" to="nt2_np2" type="griddist1"/>
    <trip arrivalPos="14.57" depart="47236" departPos="56.56" from="np9_nt16" id="pse1108_68400" to="nt1_np1" type="griddist1"/>
    <trip arrivalPos="54.64" depart="47238" departPos="73.76" from="nt14_nt15" id="pse1109_68400" to="nt3_np3" type="griddist1"/>
    <trip arrivalPos="17.08" depart="47242" departPos="73.23" from="nt10_nt9" id="pse1110_68400" to="nt1_np1" type="griddist1"/>
    <trip arrivalPos="16.94" depart="47244" departPos="56.18" from="np11_nt14" id="pse1111_68400" to="nt2_np2" type="griddist1"/>
    <trip arrivalPos="43.59" depart="47247" departPos="27.86" from="np5_nt4" id="pse1112_68400" to="nt3_np3" type="griddist1"/>
    <trip arrivalPos="21.19" depart="47249" departPos="70.74" from="np9_nt16" id="pse1113_68400" to="nt3_np3" type="griddist1"/>
    <trip arrivalPos="29.99" depart="47256" departPos="113.86" from="nt12_nt16" id="pse1114_68400" to="nt3_np3" type="griddist1"/>
    <trip arrivalPos="2.93" depart="47256" departPos="21.66" from="nt15_nt16" id="pse1115_68400" to="nt3_np3" type="griddist1"/>
    <trip arrivalPos="15.17" depart="47258" departPos="8.71" from="np10_nt15" id="pse1116_68400" to="nt4_np4" type="griddist1"/>
    <trip arrivalPos="61.33" depart="47258" departPos="66.49" from="nt10_nt14" id="pse1117_68400" to="nt2_np2" type="griddist1"/>
    <trip arrivalPos="46.94" depart="47269" departPos="109.01" from="nt15_nt14" id="pse1118_68400" to="nt3_np3" type="griddist1"/>
    <trip arrivalPos="39.77" depart="47272" departPos="154.73" from="nt6_nt5" id="pse1119_68400" to="nt3_np3" type="griddist1"/>
    <trip arrivalPos="14.04" depart="47272" departPos="128.12" from="nt7_nt8" id="pse1120_68400" to="nt2_np2" type="griddist1"/>
    <trip arrivalPos="63.37" depart="47273" departPos="27.20" from="np9_nt16" id="pse1121_68400" to="nt1_np1" type="griddist1"/>
    <trip arrivalPos="3.91" depart="47291" departPos="41.66" from="np3_nt3" id="pse1122_68400" to="nt4_np4" type="griddist1"/>
    <trip arrivalPos="53.24" depart="47295" departPos="71.18" from="np12_nt13" id="pse1123_68400" to="nt4_np4" type="griddist1"/>
    <trip arrivalPos="62.73" depart="47297" departPos="47.96" from="np10_nt15" id="pse1124_68400" to="nt1_np1" type="griddist1"/>
    <trip arrivalPos="50.84" depart="47310" departPos="74.16" from="np10_nt15" id="pse1125_68400" to="nt2_np2" type="griddist1"/>
    <trip arrivalPos="37.88" depart="47311" departPos="41.57" from="np12_nt13" id="pse1126_68400" to="nt4_np4" type="griddist1"/>
    <trip arrivalPos="50.95" depart="47315" departPos="143.72" from="nt4_nt3" id="pse1127_68400" to="nt1_np1" type="griddist1"/>
    <trip arrivalPos="63.79" depart="47321" departPos="176.34" from="nt11_nt7" id="pse1128_68400" to="nt2_np2" type="griddist1"/>
    <trip arrivalPos="55.97" depart="47322" departPos="19.70" from="nt10_nt6" id="pse1129_68400" to="nt4_np4" type="griddist1"/>
    <trip arrivalPos="38.04" depart="47322" departPos="59.13" from="np11_nt14" id="pse1130_68400" to="nt2_np2" type="griddist1"/>
    <trip arrivalPos="27.19" depart="47325" departPos="9.51" from="np10_nt15" id="pse1131_68400" to="nt2_np2" type="griddist1"/>
    <trip arrivalPos="23.39" depart="47335" departPos="33.62" from="np11_nt14" id="pse1132_68400" to="nt1_np1" type="griddist1"/>
    <trip arrivalPos="39.74" depart="47336" departPos="39.70" from="nt11_nt7" id="pse1133_68400" to="nt2_np2" type="griddist1"/>
    <trip arrivalPos="19.49" depart="47341" departPos="122.29" from="nt16_nt15" id="pse1134_68400" to="nt4_np4" type="griddist1"/>
    <trip arrivalPos="54.74" depart="47342" departPos="178.95" from="nt13_nt9" id="pse1135_68400" to="nt1_np1" type="griddist1"/>
    <trip arrivalPos="28.65" depart="47346" departPos="53.43" from="np9_nt16" id="pse1136_68400" to="nt1_np1" type="griddist1"/>
    <trip arrivalPos="8.15" depart="47350" departPos="27.53" from="nt6_nt7" id="pse1137_68400" to="nt2_np2" type="griddist1"/>
    <trip arrivalPos="24.61" depart="47355" departPos="127.62" from="nt12_nt8" id="pse1138_68400" to="nt3_np3" type="griddist1"/>
    <trip arrivalPos="27.79" depart="47366" departPos="90.59" from="nt11_nt7" id="pse1139_68400" to="nt2_np2" type="griddist1"/>
    <trip arrivalPos="56.70" depart="47366" departPos="121.51" from="nt3_nt4" id="pse1140_68400" to="nt1_np1" type="griddist1"/>
    <trip arrivalPos="57.37" depart="47371" departPos="79.82" from="nt10_nt9" id="pse1141_68400" to="nt4_np4" type="griddist1"/>
    <trip arrivalPos="47.13" depart="47371" departPos="29.90" from="np8_nt16" id="pse1142_68400" to="nt4_np4" type="griddist1"/>
    <trip arrivalPos="61.60" depart="47374" departPos="17.28" from="np14_nt9" id="pse1143_68400" to="nt2_np2" type="griddist1"/>
    <trip arrivalPos="5.51" depart="47385" departPos="16.35" from="nt15_nt11" id="pse1144_68400" to="nt2_np2" type="griddist1"/>
    <trip arrivalPos="8.41" depart="47403" departPos="27.95" from="np9_nt16" id="pse1145_68400" to="nt3_np3" type="griddist1"/>
    <trip arrivalPos="43.28" depart="47404" departPos="42.13" from="np10_nt15" id="pse1146_68400" to="nt4_np4" type="griddist1"/>
    <trip arrivalPos="27.32" depart="47406" departPos="70.58" from="np8_nt16" id="pse1147_68400" to="nt4_np4" type="griddist1"/>
    <trip arrivalPos="20.18" depart="47410" departPos="51.54" from="nt7_nt3" id="pse1148_68400" to="nt1_np1" type="griddist1"/>
    <trip arrivalPos="31.15" depart="47417" departPos="11.60" from="np11_nt14" id="pse1149_68400" to="nt3_np3" type="griddist1"/>
    <trip arrivalPos="7.42" depart="47425" departPos="103.24" from="nt5_nt6" id="pse1150_68400" to="nt2_np2" type="griddist1"/>
    <trip arrivalPos="36.24" depart="47426" departPos="32.18" from="np12_nt13" id="pse1151_68400" to="nt1_np1" type="griddist1"/>
    <trip arrivalPos="35.97" depart="47426" departPos="125.28" from="nt2_nt3" id="pse1152_68400" to="nt3_np3" type="griddist1"/>
    <trip arrivalPos="1.87" depart="47433" departPos="128.71" from="nt12_nt11" id="pse1153_68400" to="nt3_np3" type="griddist1"/>
    <trip arrivalPos="22.68" depart="47434" departPos="69.12" from="np12_nt13" id="pse1154_68400" to="nt4_np4" type="griddist1"/>
    <trip arrivalPos="4.50" depart="47436" departPos="49.30" from="np11_nt14" id="pse1155_68400" to="nt1_np1" type="griddist1"/>
    <trip arrivalPos="34.27" depart="47436" departPos="16.44" from="nt1_nt5" id="pse1156_68400" to="nt4_np4" type="griddist1"/>
    <trip arrivalPos="20.13" depart="47444" departPos="10.17" from="np4_nt4" id="pse1157_68400" to="nt2_np2" type="griddist1"/>
    <trip arrivalPos="57.06" depart="47446" departPos="40.42" from="np15_nt5" id="pse1158_68400" to="nt4_np4" type="griddist1"/>
    <trip arrivalPos="5.27" depart="47447" departPos="3.73" from="np11_nt14" id="pse1159_68400" to="nt4_np4" type="griddist1"/>
    <trip arrivalPos="26.76" depart="47451" departPos="45.53" from="np9_nt16" id="pse1160_68400" to="nt2_np2" type="griddist1"/>
    <trip arrivalPos="7.16" depart="47452" departPos="25.89" from="np12_nt13" id="pse1161_68400" to="nt3_np3" type="griddist1"/>
    <trip arrivalPos="19.92" depart="47453" departPos="97.80" from="nt14_nt15" id="pse1162_68400" to="nt3_np3" type="griddist1"/>
    <trip arrivalPos="13.21" depart="47455" departPos="4.11" from="np12_nt13" id="pse1163_68400" to="nt4_np4" type="griddist1"/>
    <trip arrivalPos="18.70" depart="47461" departPos="136.94" from="nt8_nt12" id="pse1164_68400" to="nt4_np4" type="griddist1"/>
    <trip arrivalPos="8.35" depart="47461" departPos="32.30" from="np11_nt14" id="pse1165_68400" to="nt2_np2" type="griddist1"/>
    <trip arrivalPos="43.16" depart="47465" departPos="100.12" from="nt10_nt14" id="pse1166_68400" to="nt1_np1" type="griddist1"/>
    <trip arrivalPos="28.18" depart="47466" departPos="47.94" from="np2_nt2" id="pse1167_68400" to="nt2_np2" type="griddist1"/>
    <trip arrivalPos="27.73" depart="47469" departPos="23.48" from="np9_nt16" id="pse1168_68400" to="nt1_np1" type="griddist1"/>
    <trip arrivalPos="26.17" depart="47474" departPos="21.71" from="np7_nt12" id="pse1169_68400" to="nt3_np3" type="griddist1"/>
    <trip arrivalPos="29.72" depart="47476" departPos="175.88" from="nt8_nt7" id="pse1170_68400" to="nt1_np1" type="griddist1"/>
    <trip arrivalPos="6.84" depart="47476" departPos="78.26" from="nt15_nt11" id="pse1171_68400" to="nt2_np2" type="griddist1"/>
    <trip arrivalPos="56.24" depart="47481" departPos="5.90" from="np9_nt16" id="pse1172_68400" to="nt2_np2" type="griddist1"/>
    <trip arrivalPos="4.93" depart="47495" departPos="139.62" from="nt1_nt5" id="pse1173_68400" to="nt1_np1" type="griddist1"/>
    <trip arrivalPos="50.14" depart="47500" departPos="35.99" from="nt13_nt14" id="pse1174_68400" to="nt3_np3" type="griddist1"/>
    <trip arrivalPos="9.54" depart="47512" departPos="41.70" from="np2_nt2" id="pse1175_68400" to="nt4_np4" type="griddist1"/>
    <trip arrivalPos="9.88" depart="47520" departPos="13.01" from="np11_nt14" id="pse1176_68400" to="nt2_np2" type="griddist1"/>
    <trip arrivalPos="40.57" depart="47525" departPos="176.56" from="nt2_nt1" id="pse1177_68400" to="nt1_np1" type="griddist1"/>
    <trip arrivalPos="44.00" depart="47531" departPos="43.46" from="np9_nt16" id="pse1178_68400" to="nt3_np3" type="griddist1"/>
    <trip arrivalPos="20.88" depart="47531" departPos="183.10" from="nt6_nt5" id="pse1179_68400" to="nt3_np3" type="griddist1"/>
    <trip arrivalPos="30.29" depart="47534" departPos="81.62" from="nt9_nt10" id="pse1180_68400" to="nt2_np2" type="griddist1"/>
    <trip arrivalPos="22.74" depart="47544" departPos="109.77" from="nt13_nt14" id="pse1181_68400" to="nt4_np4" type="griddist1"/>
    <trip arrivalPos="23.82" depart="47551" departPos="2.82" from="np10_nt15" id="pse1182_68400" to="nt2_np2" type="griddist1"/>
    <trip arrivalPos="5.83" depart="47561" departPos="73.30" from="np12_nt13" id="pse1183_68400" to="nt3_np3" type="griddist1"/>
    <trip arrivalPos="61.64" depart="47577" departPos="104.00" from="nt11_nt7" id="pse1184_68400" to="nt2_np2" type="griddist1"/>
    <trip arrivalPos="36.93" depart="47578" departPos="168.72" from="nt1_nt2" id="pse1185_68400" to="nt1_np1" type="griddist1"/>
    <trip arrivalPos="61.87" depart="47579" departPos="37.60" from="np11_nt14" id="pse1186_68400" to="nt3_np3" type="griddist1"/>
    <trip arrivalPos="63.46" depart="47579" departPos="62.80" from="np9_nt16" id="pse1187_68400" to="nt4_np4" type="griddist1"/>
    <trip arrivalPos="45.71" depart="47584" departPos="2.94" from="np10_nt15" id="pse1188_68400" to="nt3_np3" type="griddist1"/>
    <trip arrivalPos="23.51" depart="47585" departPos="109.28" from="nt9_nt5" id="pse1189_68400" to="nt3_np3" type="griddist1"/>
    <trip arrivalPos="43.86" depart="47587" departPos="138.78" from="nt7_nt3" id="pse1190_68400" to="nt2_np2" type="griddist1"/>
    <trip arrivalPos="21.30" depart="47591" departPos="25.10" from="np10_nt15" id="pse1191_68400" to="nt3_np3" type="griddist1"/>
    <trip arrivalPos="55.01" depart="47596" departPos="46.77" from="nt10_nt9" id="pse1192_68400" to="nt2_np2" type="griddist1"/>
    <trip arrivalPos="5.27" depart="47607" departPos="27.91" from="nt8_nt7" id="pse1193_68400" to="nt3_np3" type="griddist1"/>
    <trip arrivalPos="42.38" depart="47614" departPos="57.58" from="nt14_nt13" id="pse1194_68400" to="nt4_np4" type="griddist1"/>
    <trip arrivalPos="5.47" depart="47614" departPos="131.56" from="nt14_nt13" id="pse1195_68400" to="nt1_np1" type="griddist1"/>
    <trip arrivalPos="8.26" depart="47615" departPos="60.97" from="nt10_nt9" id="pse1196_68400" to="nt3_np3" type="griddist1"/>
    <trip arrivalPos="58.94" depart="47617" departPos="185.07" from="nt15_nt16" id="pse1197_68400" to="nt4_np4" type="griddist1"/>
    <trip arrivalPos="1.18" depart="47623" departPos="38.14" from="np10_nt15" id="pse1198_68400" to="nt3_np3" type="griddist1"/>
    <trip arrivalPos="49.49" depart="47633" departPos="23.17" from="np13_nt13" id="pse1199_68400" to="nt4_np4" type="griddist1"/>
    <trip arrivalPos="19.11" depart="47636" departPos="11.62" from="np11_nt14" id="pse1200_68400" to="nt4_np4" type="griddist1"/>
    <trip arrivalPos="47.72" depart="47647" departPos="100.18" from="nt3_nt2" id="pse1201_68400" to="nt3_np3" type="griddist1"/>
    <trip arrivalPos="39.92" depart="47658" departPos="162.66" from="nt10_nt11" id="pse1202_68400" to="nt3_np3" type="griddist1"/>
    <trip arrivalPos="44.76" depart="47660" departPos="32.41" from="nt11_nt7" id="pse1203_68400" to="nt1_np1" type="griddist1"/>
    <trip arrivalPos="2.82" depart="47660" departPos="129.24" from="nt12_nt8" id="pse1204_68400" to="nt4_np4" type="griddist1"/>
    <trip arrivalPos="39.44" depart="47662" departPos="62.64" from="np3_nt3" id="pse1205_68400" to="nt3_np3" type="griddist1"/>
    <trip arrivalPos="15.45" depart="47664" departPos="43.43" from="nt2_nt1" id="pse1206_68400" to="nt4_np4" type="griddist1"/>
    <trip arrivalPos="12.53" depart="47666" departPos="167.78" from="nt8_nt7" id="pse1207_68400" to="nt4_np4" type="griddist1"/>
    <trip arrivalPos="49.71" depart="47667" departPos="81.77" from="nt14_nt15" id="pse1208_68400" to="nt3_np3" type="griddist1"/>
    <trip arrivalPos="10.47" depart="47670" departPos="75.02" from="nt2_nt6" id="pse1209_68400" to="nt3_np3" type="griddist1"/>
    <trip arrivalPos="3.37" depart="47673" departPos="65.48" from="np11_nt14" id="pse1210_68400" to="nt3_np3" type="griddist1"/>
    <trip arrivalPos="45.96" depart="47675" departPos="70.07" from="np9_nt16" id="pse1211_68400" to="nt2_np2" type="griddist1"/>
    <trip arrivalPos="10.36" depart="47675" departPos="6.29" from="np9_nt16" id="pse1212_68400" to="nt1_np1" type="griddist1"/>
    <trip arrivalPos="5.92" depart="47676" departPos="62.33" from="np9_nt16" id="pse1213_68400" to="nt3_np3" type="griddist1"/>
    <trip arrivalPos="60.11" depart="47677" departPos="158.53" from="nt7_nt3" id="pse1214_68400" to="nt4_np4" type="griddist1"/>
    <trip arrivalPos="24.95" depart="47681" departPos="28.05" from="np8_nt16" id="pse1215_68400" to="nt2_np2" type="griddist1"/>
    <trip arrivalPos="6.40" depart="47691" departPos="23.90" from="np10_nt15" id="pse1216_68400" to="nt1_np1" type="griddist1"/>
    <trip arrivalPos="2.47" depart="47695" departPos="26.17" from="nt16_nt12" id="pse1217_68400" to="nt2_np2" type="griddist1"/>
    <trip arrivalPos="49.02" depart="47696" departPos="148.93" from="nt7_nt3" id="pse1218_68400" to="nt2_np2" type="griddist1"/>
    <trip arrivalPos="1.23" depart="47698" departPos="67.94" from="np9_nt16" id="pse1219_68400" to="nt3_np3" type="griddist1"/>
    <trip arrivalPos="39.33" depart="47698" departPos="70.52" from="np12_nt13" id="pse1220_68400" to="nt1_np1" type="griddist1"/>
    <trip arrivalPos="7.87" depart="47699" departPos="17.82" from="np9_nt16" id="pse1221_68400" to="nt4_np4" type="griddist1"/>
    <trip arrivalPos="4.06" depart="47702" departPos="46.71" from="np12_nt13" id="pse1222_68400" to="nt3_np3" type="griddist1"/>
    <trip arrivalPos="40.82" depart="47702" departPos="96.06" from="nt5_nt1" id="pse1223_68400" to="nt2_np2" type="griddist1"/>
    <trip arrivalPos="0.10" depart="47703" departPos="54.06" from="nt11_nt12" id="pse1224_68400" to="nt3_np3" type="griddist1"/>
    <trip arrivalPos="43.17" depart="47711" departPos="12.10" from="np2_nt2" id="pse1225_68400" to="nt3_np3" type="griddist1"/>
    <trip arrivalPos="35.15" depart="47713" departPos="176.95" from="nt10_nt11" id="pse1226_68400" to="nt2_np2" type="griddist1"/>
    <trip arrivalPos="56.42" depart="47714" departPos="3.77" from="nt3_nt2" id="pse1227_68400" to="nt3_np3" type="griddist1"/>
    <trip arrivalPos="48.28" depart="47720" departPos="28.00" from="np10_nt15" id="pse1228_68400" to="nt2_np2" type="griddist1"/>
    <trip arrivalPos="42.45" depart="47720" departPos="15.58" from="np2_nt2" id="pse1229_68400" to="nt1_np1" type="griddist1"/>
    <trip arrivalPos="8.62" depart="47732" departPos="56.75" from="np11_nt14" id="pse1230_68400" to="nt3_np3" type="griddist1"/>
    <trip arrivalPos="53.64" depart="47733" departPos="41.52" from="np2_nt2" id="pse1231_68400" to="nt2_np2" type="griddist1"/>